
---------- Begin Simulation Statistics ----------
simSeconds                                   0.182632                       # Number of seconds simulated (Second)
simTicks                                 182632061000                       # Number of ticks simulated (Tick)
finalTick                                182632061000                       # Number of ticks from beginning of simulation (restored from checkpoints and never reset) (Tick)
simFreq                                  1000000000000                       # The number of ticks per simulated second ((Tick/Second))
hostSeconds                                    289.39                       # Real time elapsed on the host (Second)
hostTickRate                                631085291                       # The number of ticks simulated per host second (ticks/s) ((Tick/Second))
hostMemory                                     728384                       # Number of bytes of host memory used (Byte)
simInsts                                     64793020                       # Number of instructions simulated (Count)
simOps                                       66454966                       # Number of ops (including micro ops) simulated (Count)
hostInstRate                                   223892                       # Simulator instruction rate (inst/s) ((Count/Second))
hostOpRate                                     229635                       # Simulator op (including micro ops) rate (op/s) ((Count/Second))
system.clk_domain.clock                          1000                       # Clock period in ticks (Tick)
system.cpu.numCycles                        182632061                       # Number of cpu cycles simulated (Cycle)
system.cpu.cpi                               2.818700                       # CPI: cycles per instruction (core level) ((Cycle/Count))
system.cpu.ipc                               0.354774                       # IPC: instructions per cycle (core level) ((Count/Cycle))
system.cpu.numWorkItemsStarted                      0                       # Number of work items this cpu started (Count)
system.cpu.numWorkItemsCompleted                    0                       # Number of work items this cpu completed (Count)
system.cpu.branchPred.lookups                10094651                       # Number of BP lookups (Count)
system.cpu.branchPred.condPredicted           7610556                       # Number of conditional branches predicted (Count)
system.cpu.branchPred.condIncorrect            597657                       # Number of conditional branches incorrect (Count)
system.cpu.branchPred.BTBLookups              5559453                       # Number of BTB lookups (Count)
system.cpu.branchPred.BTBUpdates               320999                       # Number of BTB updates (Count)
system.cpu.branchPred.BTBHits                 5555019                       # Number of BTB hits (Count)
system.cpu.branchPred.BTBHitRatio            0.999202                       # BTB Hit Ratio (Ratio)
system.cpu.branchPred.RASUsed                  845602                       # Number of times the RAS was used to get a target. (Count)
system.cpu.branchPred.RASIncorrect               3088                       # Number of incorrect RAS predictions. (Count)
system.cpu.branchPred.indirectLookups           20422                       # Number of indirect predictor lookups. (Count)
system.cpu.branchPred.indirectHits              19848                       # Number of indirect target hits. (Count)
system.cpu.branchPred.indirectMisses              574                       # Number of indirect misses. (Count)
system.cpu.branchPred.indirectMispredicted          443                       # Number of mispredicted indirect branches. (Count)
system.cpu.commitStats0.numInsts             64793020                       # Number of instructions committed (thread level) (Count)
system.cpu.commitStats0.numOps               66454966                       # Number of ops (including micro ops) committed (thread level) (Count)
system.cpu.commitStats0.numInstsNotNOP              0                       # Number of instructions committed excluding NOPs or prefetches (Count)
system.cpu.commitStats0.numOpsNotNOP                0                       # Number of Ops (including micro ops) Simulated (Count)
system.cpu.commitStats0.cpi                  2.818700                       # CPI: cycles per instruction (thread level) ((Cycle/Count))
system.cpu.commitStats0.ipc                  0.354774                       # IPC: instructions per cycle (thread level) ((Count/Cycle))
system.cpu.commitStats0.numMemRefs                  0                       # Number of memory references committed (Count)
system.cpu.commitStats0.numFpInsts                  0                       # Number of float instructions (Count)
system.cpu.commitStats0.numIntInsts                 0                       # Number of integer instructions (Count)
system.cpu.commitStats0.numLoadInsts                0                       # Number of load instructions (Count)
system.cpu.commitStats0.numStoreInsts               0                       # Number of store instructions (Count)
system.cpu.commitStats0.numVecInsts                 0                       # Number of vector instructions (Count)
system.cpu.commitStats0.committedInstType::No_OpClass            0      0.00%      0.00% # Class of committed instruction. (Count)
system.cpu.commitStats0.committedInstType::IntAlu     26274181     39.54%     39.54% # Class of committed instruction. (Count)
system.cpu.commitStats0.committedInstType::IntMult         9766      0.01%     39.55% # Class of committed instruction. (Count)
system.cpu.commitStats0.committedInstType::IntDiv            0      0.00%     39.55% # Class of committed instruction. (Count)
system.cpu.commitStats0.committedInstType::FloatAdd            0      0.00%     39.55% # Class of committed instruction. (Count)
system.cpu.commitStats0.committedInstType::FloatCmp            0      0.00%     39.55% # Class of committed instruction. (Count)
system.cpu.commitStats0.committedInstType::FloatCvt            0      0.00%     39.55% # Class of committed instruction. (Count)
system.cpu.commitStats0.committedInstType::FloatMult            0      0.00%     39.55% # Class of committed instruction. (Count)
system.cpu.commitStats0.committedInstType::FloatMultAcc            0      0.00%     39.55% # Class of committed instruction. (Count)
system.cpu.commitStats0.committedInstType::FloatDiv            0      0.00%     39.55% # Class of committed instruction. (Count)
system.cpu.commitStats0.committedInstType::FloatMisc            0      0.00%     39.55% # Class of committed instruction. (Count)
system.cpu.commitStats0.committedInstType::FloatSqrt            0      0.00%     39.55% # Class of committed instruction. (Count)
system.cpu.commitStats0.committedInstType::SimdAdd            0      0.00%     39.55% # Class of committed instruction. (Count)
system.cpu.commitStats0.committedInstType::SimdAddAcc            0      0.00%     39.55% # Class of committed instruction. (Count)
system.cpu.commitStats0.committedInstType::SimdAlu            0      0.00%     39.55% # Class of committed instruction. (Count)
system.cpu.commitStats0.committedInstType::SimdCmp            0      0.00%     39.55% # Class of committed instruction. (Count)
system.cpu.commitStats0.committedInstType::SimdCvt            0      0.00%     39.55% # Class of committed instruction. (Count)
system.cpu.commitStats0.committedInstType::SimdMisc            0      0.00%     39.55% # Class of committed instruction. (Count)
system.cpu.commitStats0.committedInstType::SimdMult            0      0.00%     39.55% # Class of committed instruction. (Count)
system.cpu.commitStats0.committedInstType::SimdMultAcc            0      0.00%     39.55% # Class of committed instruction. (Count)
system.cpu.commitStats0.committedInstType::SimdMatMultAcc            0      0.00%     39.55% # Class of committed instruction. (Count)
system.cpu.commitStats0.committedInstType::SimdShift            0      0.00%     39.55% # Class of committed instruction. (Count)
system.cpu.commitStats0.committedInstType::SimdShiftAcc            0      0.00%     39.55% # Class of committed instruction. (Count)
system.cpu.commitStats0.committedInstType::SimdDiv            0      0.00%     39.55% # Class of committed instruction. (Count)
system.cpu.commitStats0.committedInstType::SimdSqrt            0      0.00%     39.55% # Class of committed instruction. (Count)
system.cpu.commitStats0.committedInstType::SimdFloatAdd            0      0.00%     39.55% # Class of committed instruction. (Count)
system.cpu.commitStats0.committedInstType::SimdFloatAlu            0      0.00%     39.55% # Class of committed instruction. (Count)
system.cpu.commitStats0.committedInstType::SimdFloatCmp            0      0.00%     39.55% # Class of committed instruction. (Count)
system.cpu.commitStats0.committedInstType::SimdFloatCvt            0      0.00%     39.55% # Class of committed instruction. (Count)
system.cpu.commitStats0.committedInstType::SimdFloatDiv            0      0.00%     39.55% # Class of committed instruction. (Count)
system.cpu.commitStats0.committedInstType::SimdFloatMisc            2      0.00%     39.55% # Class of committed instruction. (Count)
system.cpu.commitStats0.committedInstType::SimdFloatMult            0      0.00%     39.55% # Class of committed instruction. (Count)
system.cpu.commitStats0.committedInstType::SimdFloatMultAcc            0      0.00%     39.55% # Class of committed instruction. (Count)
system.cpu.commitStats0.committedInstType::SimdFloatMatMultAcc            0      0.00%     39.55% # Class of committed instruction. (Count)
system.cpu.commitStats0.committedInstType::SimdFloatSqrt            0      0.00%     39.55% # Class of committed instruction. (Count)
system.cpu.commitStats0.committedInstType::SimdReduceAdd            0      0.00%     39.55% # Class of committed instruction. (Count)
system.cpu.commitStats0.committedInstType::SimdReduceAlu            0      0.00%     39.55% # Class of committed instruction. (Count)
system.cpu.commitStats0.committedInstType::SimdReduceCmp            0      0.00%     39.55% # Class of committed instruction. (Count)
system.cpu.commitStats0.committedInstType::SimdFloatReduceAdd            0      0.00%     39.55% # Class of committed instruction. (Count)
system.cpu.commitStats0.committedInstType::SimdFloatReduceCmp            0      0.00%     39.55% # Class of committed instruction. (Count)
system.cpu.commitStats0.committedInstType::SimdAes            0      0.00%     39.55% # Class of committed instruction. (Count)
system.cpu.commitStats0.committedInstType::SimdAesMix            0      0.00%     39.55% # Class of committed instruction. (Count)
system.cpu.commitStats0.committedInstType::SimdSha1Hash            0      0.00%     39.55% # Class of committed instruction. (Count)
system.cpu.commitStats0.committedInstType::SimdSha1Hash2            0      0.00%     39.55% # Class of committed instruction. (Count)
system.cpu.commitStats0.committedInstType::SimdSha256Hash            0      0.00%     39.55% # Class of committed instruction. (Count)
system.cpu.commitStats0.committedInstType::SimdSha256Hash2            0      0.00%     39.55% # Class of committed instruction. (Count)
system.cpu.commitStats0.committedInstType::SimdShaSigma2            0      0.00%     39.55% # Class of committed instruction. (Count)
system.cpu.commitStats0.committedInstType::SimdShaSigma3            0      0.00%     39.55% # Class of committed instruction. (Count)
system.cpu.commitStats0.committedInstType::SimdPredAlu            0      0.00%     39.55% # Class of committed instruction. (Count)
system.cpu.commitStats0.committedInstType::Matrix            0      0.00%     39.55% # Class of committed instruction. (Count)
system.cpu.commitStats0.committedInstType::MatrixMov            0      0.00%     39.55% # Class of committed instruction. (Count)
system.cpu.commitStats0.committedInstType::MatrixOP            0      0.00%     39.55% # Class of committed instruction. (Count)
system.cpu.commitStats0.committedInstType::MemRead     32867402     49.46%     89.01% # Class of committed instruction. (Count)
system.cpu.commitStats0.committedInstType::MemWrite      7303615     10.99%    100.00% # Class of committed instruction. (Count)
system.cpu.commitStats0.committedInstType::FloatMemRead            0      0.00%    100.00% # Class of committed instruction. (Count)
system.cpu.commitStats0.committedInstType::FloatMemWrite            0      0.00%    100.00% # Class of committed instruction. (Count)
system.cpu.commitStats0.committedInstType::IprAccess            0      0.00%    100.00% # Class of committed instruction. (Count)
system.cpu.commitStats0.committedInstType::InstPrefetch            0      0.00%    100.00% # Class of committed instruction. (Count)
system.cpu.commitStats0.committedInstType::VectorUnitStrideLoad            0      0.00%    100.00% # Class of committed instruction. (Count)
system.cpu.commitStats0.committedInstType::VectorUnitStrideStore            0      0.00%    100.00% # Class of committed instruction. (Count)
system.cpu.commitStats0.committedInstType::VectorUnitStrideMaskLoad            0      0.00%    100.00% # Class of committed instruction. (Count)
system.cpu.commitStats0.committedInstType::VectorUnitStrideMaskStore            0      0.00%    100.00% # Class of committed instruction. (Count)
system.cpu.commitStats0.committedInstType::VectorStridedLoad            0      0.00%    100.00% # Class of committed instruction. (Count)
system.cpu.commitStats0.committedInstType::VectorStridedStore            0      0.00%    100.00% # Class of committed instruction. (Count)
system.cpu.commitStats0.committedInstType::VectorIndexedLoad            0      0.00%    100.00% # Class of committed instruction. (Count)
system.cpu.commitStats0.committedInstType::VectorIndexedStore            0      0.00%    100.00% # Class of committed instruction. (Count)
system.cpu.commitStats0.committedInstType::VectorUnitStrideFaultOnlyFirstLoad            0      0.00%    100.00% # Class of committed instruction. (Count)
system.cpu.commitStats0.committedInstType::VectorWholeRegisterLoad            0      0.00%    100.00% # Class of committed instruction. (Count)
system.cpu.commitStats0.committedInstType::VectorWholeRegisterStore            0      0.00%    100.00% # Class of committed instruction. (Count)
system.cpu.commitStats0.committedInstType::VectorIntegerArith            0      0.00%    100.00% # Class of committed instruction. (Count)
system.cpu.commitStats0.committedInstType::VectorFloatArith            0      0.00%    100.00% # Class of committed instruction. (Count)
system.cpu.commitStats0.committedInstType::VectorFloatConvert            0      0.00%    100.00% # Class of committed instruction. (Count)
system.cpu.commitStats0.committedInstType::VectorIntegerReduce            0      0.00%    100.00% # Class of committed instruction. (Count)
system.cpu.commitStats0.committedInstType::VectorFloatReduce            0      0.00%    100.00% # Class of committed instruction. (Count)
system.cpu.commitStats0.committedInstType::VectorMisc            0      0.00%    100.00% # Class of committed instruction. (Count)
system.cpu.commitStats0.committedInstType::VectorIntegerExtension            0      0.00%    100.00% # Class of committed instruction. (Count)
system.cpu.commitStats0.committedInstType::VectorConfig            0      0.00%    100.00% # Class of committed instruction. (Count)
system.cpu.commitStats0.committedInstType::total     66454966                       # Class of committed instruction. (Count)
system.cpu.dcache.demandHits::cpu.data       36461990                       # number of demand (read+write) hits (Count)
system.cpu.dcache.demandHits::total          36461990                       # number of demand (read+write) hits (Count)
system.cpu.dcache.overallHits::cpu.data      36461990                       # number of overall hits (Count)
system.cpu.dcache.overallHits::total         36461990                       # number of overall hits (Count)
system.cpu.dcache.demandMisses::cpu.data      1581686                       # number of demand (read+write) misses (Count)
system.cpu.dcache.demandMisses::total         1581686                       # number of demand (read+write) misses (Count)
system.cpu.dcache.overallMisses::cpu.data      1581686                       # number of overall misses (Count)
system.cpu.dcache.overallMisses::total        1581686                       # number of overall misses (Count)
system.cpu.dcache.demandMissLatency::cpu.data  90620322000                       # number of demand (read+write) miss ticks (Tick)
system.cpu.dcache.demandMissLatency::total  90620322000                       # number of demand (read+write) miss ticks (Tick)
system.cpu.dcache.overallMissLatency::cpu.data  90620322000                       # number of overall miss ticks (Tick)
system.cpu.dcache.overallMissLatency::total  90620322000                       # number of overall miss ticks (Tick)
system.cpu.dcache.demandAccesses::cpu.data     38043676                       # number of demand (read+write) accesses (Count)
system.cpu.dcache.demandAccesses::total      38043676                       # number of demand (read+write) accesses (Count)
system.cpu.dcache.overallAccesses::cpu.data     38043676                       # number of overall (read+write) accesses (Count)
system.cpu.dcache.overallAccesses::total     38043676                       # number of overall (read+write) accesses (Count)
system.cpu.dcache.demandMissRate::cpu.data     0.041576                       # miss rate for demand accesses (Ratio)
system.cpu.dcache.demandMissRate::total      0.041576                       # miss rate for demand accesses (Ratio)
system.cpu.dcache.overallMissRate::cpu.data     0.041576                       # miss rate for overall accesses (Ratio)
system.cpu.dcache.overallMissRate::total     0.041576                       # miss rate for overall accesses (Ratio)
system.cpu.dcache.demandAvgMissLatency::cpu.data 57293.496939                       # average overall miss latency in ticks ((Tick/Count))
system.cpu.dcache.demandAvgMissLatency::total 57293.496939                       # average overall miss latency in ticks ((Tick/Count))
system.cpu.dcache.overallAvgMissLatency::cpu.data 57293.496939                       # average overall miss latency ((Tick/Count))
system.cpu.dcache.overallAvgMissLatency::total 57293.496939                       # average overall miss latency ((Tick/Count))
system.cpu.dcache.blockedCycles::no_mshrs            0                       # number of cycles access was blocked (Cycle)
system.cpu.dcache.blockedCycles::no_targets            0                       # number of cycles access was blocked (Cycle)
system.cpu.dcache.blockedCauses::no_mshrs            0                       # number of times access was blocked (Count)
system.cpu.dcache.blockedCauses::no_targets            0                       # number of times access was blocked (Count)
system.cpu.dcache.avgBlocked::no_mshrs            nan                       # average number of cycles each access was blocked ((Cycle/Count))
system.cpu.dcache.avgBlocked::no_targets          nan                       # average number of cycles each access was blocked ((Cycle/Count))
system.cpu.dcache.writebacks::writebacks       229163                       # number of writebacks (Count)
system.cpu.dcache.writebacks::total            229163                       # number of writebacks (Count)
system.cpu.dcache.demandMshrHits::cpu.data        27200                       # number of demand (read+write) MSHR hits (Count)
system.cpu.dcache.demandMshrHits::total         27200                       # number of demand (read+write) MSHR hits (Count)
system.cpu.dcache.overallMshrHits::cpu.data        27200                       # number of overall MSHR hits (Count)
system.cpu.dcache.overallMshrHits::total        27200                       # number of overall MSHR hits (Count)
system.cpu.dcache.demandMshrMisses::cpu.data      1554486                       # number of demand (read+write) MSHR misses (Count)
system.cpu.dcache.demandMshrMisses::total      1554486                       # number of demand (read+write) MSHR misses (Count)
system.cpu.dcache.overallMshrMisses::cpu.data      1554486                       # number of overall MSHR misses (Count)
system.cpu.dcache.overallMshrMisses::total      1554486                       # number of overall MSHR misses (Count)
system.cpu.dcache.demandMshrMissLatency::cpu.data  85627745000                       # number of demand (read+write) MSHR miss ticks (Tick)
system.cpu.dcache.demandMshrMissLatency::total  85627745000                       # number of demand (read+write) MSHR miss ticks (Tick)
system.cpu.dcache.overallMshrMissLatency::cpu.data  85627745000                       # number of overall MSHR miss ticks (Tick)
system.cpu.dcache.overallMshrMissLatency::total  85627745000                       # number of overall MSHR miss ticks (Tick)
system.cpu.dcache.demandMshrMissRate::cpu.data     0.040861                       # mshr miss ratio for demand accesses (Ratio)
system.cpu.dcache.demandMshrMissRate::total     0.040861                       # mshr miss ratio for demand accesses (Ratio)
system.cpu.dcache.overallMshrMissRate::cpu.data     0.040861                       # mshr miss ratio for overall accesses (Ratio)
system.cpu.dcache.overallMshrMissRate::total     0.040861                       # mshr miss ratio for overall accesses (Ratio)
system.cpu.dcache.demandAvgMshrMissLatency::cpu.data 55084.281878                       # average overall mshr miss latency ((Tick/Count))
system.cpu.dcache.demandAvgMshrMissLatency::total 55084.281878                       # average overall mshr miss latency ((Tick/Count))
system.cpu.dcache.overallAvgMshrMissLatency::cpu.data 55084.281878                       # average overall mshr miss latency ((Tick/Count))
system.cpu.dcache.overallAvgMshrMissLatency::total 55084.281878                       # average overall mshr miss latency ((Tick/Count))
system.cpu.dcache.replacements                1554230                       # number of replacements (Count)
system.cpu.dcache.LoadLockedReq.hits::cpu.data         2874                       # number of LoadLockedReq hits (Count)
system.cpu.dcache.LoadLockedReq.hits::total         2874                       # number of LoadLockedReq hits (Count)
system.cpu.dcache.LoadLockedReq.accesses::cpu.data         2874                       # number of LoadLockedReq accesses(hits+misses) (Count)
system.cpu.dcache.LoadLockedReq.accesses::total         2874                       # number of LoadLockedReq accesses(hits+misses) (Count)
system.cpu.dcache.ReadReq.hits::cpu.data     29283522                       # number of ReadReq hits (Count)
system.cpu.dcache.ReadReq.hits::total        29283522                       # number of ReadReq hits (Count)
system.cpu.dcache.ReadReq.misses::cpu.data      1480371                       # number of ReadReq misses (Count)
system.cpu.dcache.ReadReq.misses::total       1480371                       # number of ReadReq misses (Count)
system.cpu.dcache.ReadReq.missLatency::cpu.data  86603418000                       # number of ReadReq miss ticks (Tick)
system.cpu.dcache.ReadReq.missLatency::total  86603418000                       # number of ReadReq miss ticks (Tick)
system.cpu.dcache.ReadReq.accesses::cpu.data     30763893                       # number of ReadReq accesses(hits+misses) (Count)
system.cpu.dcache.ReadReq.accesses::total     30763893                       # number of ReadReq accesses(hits+misses) (Count)
system.cpu.dcache.ReadReq.missRate::cpu.data     0.048120                       # miss rate for ReadReq accesses (Ratio)
system.cpu.dcache.ReadReq.missRate::total     0.048120                       # miss rate for ReadReq accesses (Ratio)
system.cpu.dcache.ReadReq.avgMissLatency::cpu.data 58501.158156                       # average ReadReq miss latency ((Tick/Count))
system.cpu.dcache.ReadReq.avgMissLatency::total 58501.158156                       # average ReadReq miss latency ((Tick/Count))
system.cpu.dcache.ReadReq.mshrHits::cpu.data         3687                       # number of ReadReq MSHR hits (Count)
system.cpu.dcache.ReadReq.mshrHits::total         3687                       # number of ReadReq MSHR hits (Count)
system.cpu.dcache.ReadReq.mshrMisses::cpu.data      1476684                       # number of ReadReq MSHR misses (Count)
system.cpu.dcache.ReadReq.mshrMisses::total      1476684                       # number of ReadReq MSHR misses (Count)
system.cpu.dcache.ReadReq.mshrMissLatency::cpu.data  82909886000                       # number of ReadReq MSHR miss ticks (Tick)
system.cpu.dcache.ReadReq.mshrMissLatency::total  82909886000                       # number of ReadReq MSHR miss ticks (Tick)
system.cpu.dcache.ReadReq.mshrMissRate::cpu.data     0.048001                       # mshr miss rate for ReadReq accesses (Ratio)
system.cpu.dcache.ReadReq.mshrMissRate::total     0.048001                       # mshr miss rate for ReadReq accesses (Ratio)
system.cpu.dcache.ReadReq.avgMshrMissLatency::cpu.data 56145.990611                       # average ReadReq mshr miss latency ((Tick/Count))
system.cpu.dcache.ReadReq.avgMshrMissLatency::total 56145.990611                       # average ReadReq mshr miss latency ((Tick/Count))
system.cpu.dcache.StoreCondReq.hits::cpu.data         2874                       # number of StoreCondReq hits (Count)
system.cpu.dcache.StoreCondReq.hits::total         2874                       # number of StoreCondReq hits (Count)
system.cpu.dcache.StoreCondReq.accesses::cpu.data         2874                       # number of StoreCondReq accesses(hits+misses) (Count)
system.cpu.dcache.StoreCondReq.accesses::total         2874                       # number of StoreCondReq accesses(hits+misses) (Count)
system.cpu.dcache.WriteReq.hits::cpu.data      7178468                       # number of WriteReq hits (Count)
system.cpu.dcache.WriteReq.hits::total        7178468                       # number of WriteReq hits (Count)
system.cpu.dcache.WriteReq.misses::cpu.data       101315                       # number of WriteReq misses (Count)
system.cpu.dcache.WriteReq.misses::total       101315                       # number of WriteReq misses (Count)
system.cpu.dcache.WriteReq.missLatency::cpu.data   4016904000                       # number of WriteReq miss ticks (Tick)
system.cpu.dcache.WriteReq.missLatency::total   4016904000                       # number of WriteReq miss ticks (Tick)
system.cpu.dcache.WriteReq.accesses::cpu.data      7279783                       # number of WriteReq accesses(hits+misses) (Count)
system.cpu.dcache.WriteReq.accesses::total      7279783                       # number of WriteReq accesses(hits+misses) (Count)
system.cpu.dcache.WriteReq.missRate::cpu.data     0.013917                       # miss rate for WriteReq accesses (Ratio)
system.cpu.dcache.WriteReq.missRate::total     0.013917                       # miss rate for WriteReq accesses (Ratio)
system.cpu.dcache.WriteReq.avgMissLatency::cpu.data 39647.673099                       # average WriteReq miss latency ((Tick/Count))
system.cpu.dcache.WriteReq.avgMissLatency::total 39647.673099                       # average WriteReq miss latency ((Tick/Count))
system.cpu.dcache.WriteReq.mshrHits::cpu.data        23513                       # number of WriteReq MSHR hits (Count)
system.cpu.dcache.WriteReq.mshrHits::total        23513                       # number of WriteReq MSHR hits (Count)
system.cpu.dcache.WriteReq.mshrMisses::cpu.data        77802                       # number of WriteReq MSHR misses (Count)
system.cpu.dcache.WriteReq.mshrMisses::total        77802                       # number of WriteReq MSHR misses (Count)
system.cpu.dcache.WriteReq.mshrMissLatency::cpu.data   2717859000                       # number of WriteReq MSHR miss ticks (Tick)
system.cpu.dcache.WriteReq.mshrMissLatency::total   2717859000                       # number of WriteReq MSHR miss ticks (Tick)
system.cpu.dcache.WriteReq.mshrMissRate::cpu.data     0.010687                       # mshr miss rate for WriteReq accesses (Ratio)
system.cpu.dcache.WriteReq.mshrMissRate::total     0.010687                       # mshr miss rate for WriteReq accesses (Ratio)
system.cpu.dcache.WriteReq.avgMshrMissLatency::cpu.data 34933.022287                       # average WriteReq mshr miss latency ((Tick/Count))
system.cpu.dcache.WriteReq.avgMshrMissLatency::total 34933.022287                       # average WriteReq mshr miss latency ((Tick/Count))
system.cpu.dcache.power_state.pwrStateResidencyTicks::UNDEFINED 182632061000                       # Cumulative time (in ticks) in various power states (Tick)
system.cpu.dcache.tags.tagsInUse           255.935743                       # Average ticks per tags in use ((Tick/Count))
system.cpu.dcache.tags.totalRefs             38022224                       # Total number of references to valid blocks. (Count)
system.cpu.dcache.tags.sampledRefs            1554486                       # Sample count of references to valid blocks. (Count)
system.cpu.dcache.tags.avgRefs              24.459676                       # Average number of references to valid blocks. ((Count/Count))
system.cpu.dcache.tags.warmupTick              199500                       # The tick when the warmup percentage was hit. (Tick)
system.cpu.dcache.tags.occupancies::cpu.data   255.935743                       # Average occupied blocks per tick, per requestor ((Count/Tick))
system.cpu.dcache.tags.avgOccs::cpu.data     0.999749                       # Average percentage of cache occupancy ((Ratio/Tick))
system.cpu.dcache.tags.avgOccs::total        0.999749                       # Average percentage of cache occupancy ((Ratio/Tick))
system.cpu.dcache.tags.occupanciesTaskId::1024          256                       # Occupied blocks per task id (Count)
system.cpu.dcache.tags.ageTaskId_1024::0           32                       # Occupied blocks per task id, per block age (Count)
system.cpu.dcache.tags.ageTaskId_1024::1          154                       # Occupied blocks per task id, per block age (Count)
system.cpu.dcache.tags.ageTaskId_1024::2           70                       # Occupied blocks per task id, per block age (Count)
system.cpu.dcache.tags.ratioOccsTaskId::1024            1                       # Ratio of occupied blocks and all blocks, per task id (Ratio)
system.cpu.dcache.tags.tagAccesses           77653334                       # Number of tag accesses (Count)
system.cpu.dcache.tags.dataAccesses          77653334                       # Number of data accesses (Count)
system.cpu.dcache.tags.power_state.pwrStateResidencyTicks::UNDEFINED 182632061000                       # Cumulative time (in ticks) in various power states (Tick)
system.cpu.executeStats0.numInsts                   0                       # Number of executed instructions (Count)
system.cpu.executeStats0.numNop                     0                       # Number of nop insts executed (Count)
system.cpu.executeStats0.numBranches                0                       # Number of branches executed (Count)
system.cpu.executeStats0.numLoadInsts               0                       # Number of load instructions executed (Count)
system.cpu.executeStats0.numStoreInsts              0                       # Number of stores executed (Count)
system.cpu.executeStats0.instRate                   0                       # Inst execution rate ((Count/Cycle))
system.cpu.executeStats0.numFpRegWrites             0                       # Number of times the floating registers were written (Count)
system.cpu.executeStats0.numMemRefs                 0                       # Number of memory refs (Count)
system.cpu.executeStats0.numVecAluAccesses            0                       # Number of vector alu accesses (Count)
system.cpu.executeStats0.numDiscardedOps      1415510                       # Number of ops (including micro ops) which were discarded before commit (Count)
system.cpu.fetch2.intInstructions            20511983                       # Number of integer instructions successfully decoded (Count)
system.cpu.fetch2.fpInstructions                    0                       # Number of floating point instructions successfully decoded (Count)
system.cpu.fetch2.vecInstructions                   0                       # Number of SIMD instructions successfully decoded (Count)
system.cpu.fetch2.loadInstructions           37608165                       # Number of memory load instructions successfully decoded (Count)
system.cpu.fetch2.storeInstructions           7338890                       # Number of memory store instructions successfully decoded (Count)
system.cpu.fetch2.amoInstructions                   0                       # Number of memory atomic instructions successfully decoded (Count)
system.cpu.fetchStats0.numInsts                     0                       # Number of instructions fetched (thread level) (Count)
system.cpu.fetchStats0.numOps                       0                       # Number of ops (including micro ops) fetched (thread level) (Count)
system.cpu.fetchStats0.fetchRate                    0                       # Number of inst fetches per cycle ((Count/Cycle))
system.cpu.fetchStats0.branchRate                   0                       # Number of branch fetches per cycle (Ratio)
system.cpu.fetchStats0.numFetchSuspends             0                       # Number of times Execute suspended instruction fetching (Count)
system.cpu.icache.demandHits::cpu.inst       21586674                       # number of demand (read+write) hits (Count)
system.cpu.icache.demandHits::total          21586674                       # number of demand (read+write) hits (Count)
system.cpu.icache.overallHits::cpu.inst      21586674                       # number of overall hits (Count)
system.cpu.icache.overallHits::total         21586674                       # number of overall hits (Count)
system.cpu.icache.demandMisses::cpu.inst        29977                       # number of demand (read+write) misses (Count)
system.cpu.icache.demandMisses::total           29977                       # number of demand (read+write) misses (Count)
system.cpu.icache.overallMisses::cpu.inst        29977                       # number of overall misses (Count)
system.cpu.icache.overallMisses::total          29977                       # number of overall misses (Count)
system.cpu.icache.demandMissLatency::cpu.inst    610118000                       # number of demand (read+write) miss ticks (Tick)
system.cpu.icache.demandMissLatency::total    610118000                       # number of demand (read+write) miss ticks (Tick)
system.cpu.icache.overallMissLatency::cpu.inst    610118000                       # number of overall miss ticks (Tick)
system.cpu.icache.overallMissLatency::total    610118000                       # number of overall miss ticks (Tick)
system.cpu.icache.demandAccesses::cpu.inst     21616651                       # number of demand (read+write) accesses (Count)
system.cpu.icache.demandAccesses::total      21616651                       # number of demand (read+write) accesses (Count)
system.cpu.icache.overallAccesses::cpu.inst     21616651                       # number of overall (read+write) accesses (Count)
system.cpu.icache.overallAccesses::total     21616651                       # number of overall (read+write) accesses (Count)
system.cpu.icache.demandMissRate::cpu.inst     0.001387                       # miss rate for demand accesses (Ratio)
system.cpu.icache.demandMissRate::total      0.001387                       # miss rate for demand accesses (Ratio)
system.cpu.icache.overallMissRate::cpu.inst     0.001387                       # miss rate for overall accesses (Ratio)
system.cpu.icache.overallMissRate::total     0.001387                       # miss rate for overall accesses (Ratio)
system.cpu.icache.demandAvgMissLatency::cpu.inst 20352.870534                       # average overall miss latency in ticks ((Tick/Count))
system.cpu.icache.demandAvgMissLatency::total 20352.870534                       # average overall miss latency in ticks ((Tick/Count))
system.cpu.icache.overallAvgMissLatency::cpu.inst 20352.870534                       # average overall miss latency ((Tick/Count))
system.cpu.icache.overallAvgMissLatency::total 20352.870534                       # average overall miss latency ((Tick/Count))
system.cpu.icache.blockedCycles::no_mshrs            0                       # number of cycles access was blocked (Cycle)
system.cpu.icache.blockedCycles::no_targets            0                       # number of cycles access was blocked (Cycle)
system.cpu.icache.blockedCauses::no_mshrs            0                       # number of times access was blocked (Count)
system.cpu.icache.blockedCauses::no_targets            0                       # number of times access was blocked (Count)
system.cpu.icache.avgBlocked::no_mshrs            nan                       # average number of cycles each access was blocked ((Cycle/Count))
system.cpu.icache.avgBlocked::no_targets          nan                       # average number of cycles each access was blocked ((Cycle/Count))
system.cpu.icache.writebacks::writebacks        29720                       # number of writebacks (Count)
system.cpu.icache.writebacks::total             29720                       # number of writebacks (Count)
system.cpu.icache.demandMshrMisses::cpu.inst        29977                       # number of demand (read+write) MSHR misses (Count)
system.cpu.icache.demandMshrMisses::total        29977                       # number of demand (read+write) MSHR misses (Count)
system.cpu.icache.overallMshrMisses::cpu.inst        29977                       # number of overall MSHR misses (Count)
system.cpu.icache.overallMshrMisses::total        29977                       # number of overall MSHR misses (Count)
system.cpu.icache.demandMshrMissLatency::cpu.inst    549024500                       # number of demand (read+write) MSHR miss ticks (Tick)
system.cpu.icache.demandMshrMissLatency::total    549024500                       # number of demand (read+write) MSHR miss ticks (Tick)
system.cpu.icache.overallMshrMissLatency::cpu.inst    549024500                       # number of overall MSHR miss ticks (Tick)
system.cpu.icache.overallMshrMissLatency::total    549024500                       # number of overall MSHR miss ticks (Tick)
system.cpu.icache.demandMshrMissRate::cpu.inst     0.001387                       # mshr miss ratio for demand accesses (Ratio)
system.cpu.icache.demandMshrMissRate::total     0.001387                       # mshr miss ratio for demand accesses (Ratio)
system.cpu.icache.overallMshrMissRate::cpu.inst     0.001387                       # mshr miss ratio for overall accesses (Ratio)
system.cpu.icache.overallMshrMissRate::total     0.001387                       # mshr miss ratio for overall accesses (Ratio)
system.cpu.icache.demandAvgMshrMissLatency::cpu.inst 18314.858058                       # average overall mshr miss latency ((Tick/Count))
system.cpu.icache.demandAvgMshrMissLatency::total 18314.858058                       # average overall mshr miss latency ((Tick/Count))
system.cpu.icache.overallAvgMshrMissLatency::cpu.inst 18314.858058                       # average overall mshr miss latency ((Tick/Count))
system.cpu.icache.overallAvgMshrMissLatency::total 18314.858058                       # average overall mshr miss latency ((Tick/Count))
system.cpu.icache.replacements                  29720                       # number of replacements (Count)
system.cpu.icache.ReadReq.hits::cpu.inst     21586674                       # number of ReadReq hits (Count)
system.cpu.icache.ReadReq.hits::total        21586674                       # number of ReadReq hits (Count)
system.cpu.icache.ReadReq.misses::cpu.inst        29977                       # number of ReadReq misses (Count)
system.cpu.icache.ReadReq.misses::total         29977                       # number of ReadReq misses (Count)
system.cpu.icache.ReadReq.missLatency::cpu.inst    610118000                       # number of ReadReq miss ticks (Tick)
system.cpu.icache.ReadReq.missLatency::total    610118000                       # number of ReadReq miss ticks (Tick)
system.cpu.icache.ReadReq.accesses::cpu.inst     21616651                       # number of ReadReq accesses(hits+misses) (Count)
system.cpu.icache.ReadReq.accesses::total     21616651                       # number of ReadReq accesses(hits+misses) (Count)
system.cpu.icache.ReadReq.missRate::cpu.inst     0.001387                       # miss rate for ReadReq accesses (Ratio)
system.cpu.icache.ReadReq.missRate::total     0.001387                       # miss rate for ReadReq accesses (Ratio)
system.cpu.icache.ReadReq.avgMissLatency::cpu.inst 20352.870534                       # average ReadReq miss latency ((Tick/Count))
system.cpu.icache.ReadReq.avgMissLatency::total 20352.870534                       # average ReadReq miss latency ((Tick/Count))
system.cpu.icache.ReadReq.mshrMisses::cpu.inst        29977                       # number of ReadReq MSHR misses (Count)
system.cpu.icache.ReadReq.mshrMisses::total        29977                       # number of ReadReq MSHR misses (Count)
system.cpu.icache.ReadReq.mshrMissLatency::cpu.inst    549024500                       # number of ReadReq MSHR miss ticks (Tick)
system.cpu.icache.ReadReq.mshrMissLatency::total    549024500                       # number of ReadReq MSHR miss ticks (Tick)
system.cpu.icache.ReadReq.mshrMissRate::cpu.inst     0.001387                       # mshr miss rate for ReadReq accesses (Ratio)
system.cpu.icache.ReadReq.mshrMissRate::total     0.001387                       # mshr miss rate for ReadReq accesses (Ratio)
system.cpu.icache.ReadReq.avgMshrMissLatency::cpu.inst 18314.858058                       # average ReadReq mshr miss latency ((Tick/Count))
system.cpu.icache.ReadReq.avgMshrMissLatency::total 18314.858058                       # average ReadReq mshr miss latency ((Tick/Count))
system.cpu.icache.power_state.pwrStateResidencyTicks::UNDEFINED 182632061000                       # Cumulative time (in ticks) in various power states (Tick)
system.cpu.icache.tags.tagsInUse           255.905927                       # Average ticks per tags in use ((Tick/Count))
system.cpu.icache.tags.totalRefs             21616650                       # Total number of references to valid blocks. (Count)
system.cpu.icache.tags.sampledRefs              29976                       # Sample count of references to valid blocks. (Count)
system.cpu.icache.tags.avgRefs             721.131906                       # Average number of references to valid blocks. ((Count/Count))
system.cpu.icache.tags.warmupTick               87500                       # The tick when the warmup percentage was hit. (Tick)
system.cpu.icache.tags.occupancies::cpu.inst   255.905927                       # Average occupied blocks per tick, per requestor ((Count/Tick))
system.cpu.icache.tags.avgOccs::cpu.inst     0.999633                       # Average percentage of cache occupancy ((Ratio/Tick))
system.cpu.icache.tags.avgOccs::total        0.999633                       # Average percentage of cache occupancy ((Ratio/Tick))
system.cpu.icache.tags.occupanciesTaskId::1024          256                       # Occupied blocks per task id (Count)
system.cpu.icache.tags.ageTaskId_1024::0           95                       # Occupied blocks per task id, per block age (Count)
system.cpu.icache.tags.ageTaskId_1024::1           62                       # Occupied blocks per task id, per block age (Count)
system.cpu.icache.tags.ageTaskId_1024::2           55                       # Occupied blocks per task id, per block age (Count)
system.cpu.icache.tags.ageTaskId_1024::3           23                       # Occupied blocks per task id, per block age (Count)
system.cpu.icache.tags.ageTaskId_1024::4           21                       # Occupied blocks per task id, per block age (Count)
system.cpu.icache.tags.ratioOccsTaskId::1024            1                       # Ratio of occupied blocks and all blocks, per task id (Ratio)
system.cpu.icache.tags.tagAccesses           43263278                       # Number of tag accesses (Count)
system.cpu.icache.tags.dataAccesses          43263278                       # Number of data accesses (Count)
system.cpu.icache.tags.power_state.pwrStateResidencyTicks::UNDEFINED 182632061000                       # Cumulative time (in ticks) in various power states (Tick)
system.cpu.mmu.alignFaults                          0                       # Number of MMU faults due to alignment restrictions (Count)
system.cpu.mmu.prefetchFaults                       0                       # Number of MMU faults due to prefetch (Count)
system.cpu.mmu.domainFaults                         0                       # Number of MMU faults due to domain restrictions (Count)
system.cpu.mmu.permsFaults                          0                       # Number of MMU faults due to permissions restrictions (Count)
system.cpu.mmu.dtb.readHits                         0                       # Read hits (Count)
system.cpu.mmu.dtb.readMisses                       0                       # Read misses (Count)
system.cpu.mmu.dtb.writeHits                        0                       # Write hits (Count)
system.cpu.mmu.dtb.writeMisses                      0                       # Write misses (Count)
system.cpu.mmu.dtb.inserts                          0                       # Number of times an entry is inserted into the TLB (Count)
system.cpu.mmu.dtb.flushTlb                         1                       # Number of times a TLB invalidation was requested (Count)
system.cpu.mmu.dtb.flushedEntries                   0                       # Number of entries that have been flushed from TLB (Count)
system.cpu.mmu.dtb.readAccesses                     0                       # Read accesses (Count)
system.cpu.mmu.dtb.writeAccesses                    0                       # Write accesses (Count)
system.cpu.mmu.dtb.hits                             0                       # Total TLB (inst and data) hits (Count)
system.cpu.mmu.dtb.misses                           0                       # Total TLB (inst and data) misses (Count)
system.cpu.mmu.dtb.accesses                         0                       # Total TLB (inst and data) accesses (Count)
system.cpu.mmu.dtb_walker.walks                     0                       # Table walker walks requested (Count)
system.cpu.mmu.dtb_walker.requestOrigin_Requested::Data            0                       # Table walker requests started/completed, data/inst (Count)
system.cpu.mmu.dtb_walker.requestOrigin_Requested::Inst            0                       # Table walker requests started/completed, data/inst (Count)
system.cpu.mmu.dtb_walker.requestOrigin_Requested::total            0                       # Table walker requests started/completed, data/inst (Count)
system.cpu.mmu.dtb_walker.requestOrigin_Completed::Data            0                       # Table walker requests started/completed, data/inst (Count)
system.cpu.mmu.dtb_walker.requestOrigin_Completed::Inst            0                       # Table walker requests started/completed, data/inst (Count)
system.cpu.mmu.dtb_walker.requestOrigin_Completed::total            0                       # Table walker requests started/completed, data/inst (Count)
system.cpu.mmu.dtb_walker.requestOrigin::total            0                       # Table walker requests started/completed, data/inst (Count)
system.cpu.mmu.dtb_walker.power_state.pwrStateResidencyTicks::UNDEFINED 182632061000                       # Cumulative time (in ticks) in various power states (Tick)
system.cpu.mmu.itb.instHits                         0                       # Inst hits (Count)
system.cpu.mmu.itb.instMisses                       0                       # Inst misses (Count)
system.cpu.mmu.itb.inserts                          0                       # Number of times an entry is inserted into the TLB (Count)
system.cpu.mmu.itb.flushTlb                         1                       # Number of times a TLB invalidation was requested (Count)
system.cpu.mmu.itb.flushedEntries                   0                       # Number of entries that have been flushed from TLB (Count)
system.cpu.mmu.itb.instAccesses                     0                       # Inst accesses (Count)
system.cpu.mmu.itb.hits                             0                       # Total TLB (inst and data) hits (Count)
system.cpu.mmu.itb.misses                           0                       # Total TLB (inst and data) misses (Count)
system.cpu.mmu.itb.accesses                         0                       # Total TLB (inst and data) accesses (Count)
system.cpu.mmu.itb_walker.walks                     0                       # Table walker walks requested (Count)
system.cpu.mmu.itb_walker.requestOrigin_Requested::Data            0                       # Table walker requests started/completed, data/inst (Count)
system.cpu.mmu.itb_walker.requestOrigin_Requested::Inst            0                       # Table walker requests started/completed, data/inst (Count)
system.cpu.mmu.itb_walker.requestOrigin_Requested::total            0                       # Table walker requests started/completed, data/inst (Count)
system.cpu.mmu.itb_walker.requestOrigin_Completed::Data            0                       # Table walker requests started/completed, data/inst (Count)
system.cpu.mmu.itb_walker.requestOrigin_Completed::Inst            0                       # Table walker requests started/completed, data/inst (Count)
system.cpu.mmu.itb_walker.requestOrigin_Completed::total            0                       # Table walker requests started/completed, data/inst (Count)
system.cpu.mmu.itb_walker.requestOrigin::total            0                       # Table walker requests started/completed, data/inst (Count)
system.cpu.mmu.itb_walker.power_state.pwrStateResidencyTicks::UNDEFINED 182632061000                       # Cumulative time (in ticks) in various power states (Tick)
system.cpu.mmu.l2_shared.instHits                   0                       # Inst hits (Count)
system.cpu.mmu.l2_shared.instMisses                 0                       # Inst misses (Count)
system.cpu.mmu.l2_shared.inserts                    0                       # Number of times an entry is inserted into the TLB (Count)
system.cpu.mmu.l2_shared.flushTlb                   1                       # Number of times a TLB invalidation was requested (Count)
system.cpu.mmu.l2_shared.flushedEntries             0                       # Number of entries that have been flushed from TLB (Count)
system.cpu.mmu.l2_shared.instAccesses               0                       # Inst accesses (Count)
system.cpu.mmu.l2_shared.hits                       0                       # Total TLB (inst and data) hits (Count)
system.cpu.mmu.l2_shared.misses                     0                       # Total TLB (inst and data) misses (Count)
system.cpu.mmu.l2_shared.accesses                   0                       # Total TLB (inst and data) accesses (Count)
system.cpu.mmu.stage2_dtb.readHits                  0                       # Read hits (Count)
system.cpu.mmu.stage2_dtb.readMisses                0                       # Read misses (Count)
system.cpu.mmu.stage2_dtb.writeHits                 0                       # Write hits (Count)
system.cpu.mmu.stage2_dtb.writeMisses               0                       # Write misses (Count)
system.cpu.mmu.stage2_dtb.inserts                   0                       # Number of times an entry is inserted into the TLB (Count)
system.cpu.mmu.stage2_dtb.flushTlb                  1                       # Number of times a TLB invalidation was requested (Count)
system.cpu.mmu.stage2_dtb.flushedEntries            0                       # Number of entries that have been flushed from TLB (Count)
system.cpu.mmu.stage2_dtb.readAccesses              0                       # Read accesses (Count)
system.cpu.mmu.stage2_dtb.writeAccesses             0                       # Write accesses (Count)
system.cpu.mmu.stage2_dtb.hits                      0                       # Total TLB (inst and data) hits (Count)
system.cpu.mmu.stage2_dtb.misses                    0                       # Total TLB (inst and data) misses (Count)
system.cpu.mmu.stage2_dtb.accesses                  0                       # Total TLB (inst and data) accesses (Count)
system.cpu.mmu.stage2_dtb_walker.walks              0                       # Table walker walks requested (Count)
system.cpu.mmu.stage2_dtb_walker.requestOrigin_Requested::Data            0                       # Table walker requests started/completed, data/inst (Count)
system.cpu.mmu.stage2_dtb_walker.requestOrigin_Requested::Inst            0                       # Table walker requests started/completed, data/inst (Count)
system.cpu.mmu.stage2_dtb_walker.requestOrigin_Requested::total            0                       # Table walker requests started/completed, data/inst (Count)
system.cpu.mmu.stage2_dtb_walker.requestOrigin_Completed::Data            0                       # Table walker requests started/completed, data/inst (Count)
system.cpu.mmu.stage2_dtb_walker.requestOrigin_Completed::Inst            0                       # Table walker requests started/completed, data/inst (Count)
system.cpu.mmu.stage2_dtb_walker.requestOrigin_Completed::total            0                       # Table walker requests started/completed, data/inst (Count)
system.cpu.mmu.stage2_dtb_walker.requestOrigin::total            0                       # Table walker requests started/completed, data/inst (Count)
system.cpu.mmu.stage2_dtb_walker.power_state.pwrStateResidencyTicks::UNDEFINED 182632061000                       # Cumulative time (in ticks) in various power states (Tick)
system.cpu.mmu.stage2_itb.instHits                  0                       # Inst hits (Count)
system.cpu.mmu.stage2_itb.instMisses                0                       # Inst misses (Count)
system.cpu.mmu.stage2_itb.inserts                   0                       # Number of times an entry is inserted into the TLB (Count)
system.cpu.mmu.stage2_itb.flushTlb                  1                       # Number of times a TLB invalidation was requested (Count)
system.cpu.mmu.stage2_itb.flushedEntries            0                       # Number of entries that have been flushed from TLB (Count)
system.cpu.mmu.stage2_itb.instAccesses              0                       # Inst accesses (Count)
system.cpu.mmu.stage2_itb.hits                      0                       # Total TLB (inst and data) hits (Count)
system.cpu.mmu.stage2_itb.misses                    0                       # Total TLB (inst and data) misses (Count)
system.cpu.mmu.stage2_itb.accesses                  0                       # Total TLB (inst and data) accesses (Count)
system.cpu.mmu.stage2_itb_walker.walks              0                       # Table walker walks requested (Count)
system.cpu.mmu.stage2_itb_walker.requestOrigin_Requested::Data            0                       # Table walker requests started/completed, data/inst (Count)
system.cpu.mmu.stage2_itb_walker.requestOrigin_Requested::Inst            0                       # Table walker requests started/completed, data/inst (Count)
system.cpu.mmu.stage2_itb_walker.requestOrigin_Requested::total            0                       # Table walker requests started/completed, data/inst (Count)
system.cpu.mmu.stage2_itb_walker.requestOrigin_Completed::Data            0                       # Table walker requests started/completed, data/inst (Count)
system.cpu.mmu.stage2_itb_walker.requestOrigin_Completed::Inst            0                       # Table walker requests started/completed, data/inst (Count)
system.cpu.mmu.stage2_itb_walker.requestOrigin_Completed::total            0                       # Table walker requests started/completed, data/inst (Count)
system.cpu.mmu.stage2_itb_walker.requestOrigin::total            0                       # Table walker requests started/completed, data/inst (Count)
system.cpu.mmu.stage2_itb_walker.power_state.pwrStateResidencyTicks::UNDEFINED 182632061000                       # Cumulative time (in ticks) in various power states (Tick)
system.cpu.power_state.pwrStateResidencyTicks::ON 182632061000                       # Cumulative time (in ticks) in various power states (Tick)
system.cpu.thread_0.numInsts                 64793020                       # Number of Instructions committed (Count)
system.cpu.thread_0.numOps                   66454966                       # Number of Ops committed (Count)
system.cpu.thread_0.numMemRefs                      0                       # Number of Memory References (Count)
system.cpu.workload.numSyscalls                    39                       # Number of system calls (Count)
system.cpu_clk_domain.clock                       500                       # Clock period in ticks (Tick)
system.cpu_voltage_domain.voltage                   1                       # Voltage in Volts (Volt)
system.l2.demandHits::cpu.inst                  27691                       # number of demand (read+write) hits (Count)
system.l2.demandHits::cpu.data                 542160                       # number of demand (read+write) hits (Count)
system.l2.demandHits::total                    569851                       # number of demand (read+write) hits (Count)
system.l2.overallHits::cpu.inst                 27691                       # number of overall hits (Count)
system.l2.overallHits::cpu.data                542160                       # number of overall hits (Count)
system.l2.overallHits::total                   569851                       # number of overall hits (Count)
system.l2.demandMisses::cpu.inst                 2286                       # number of demand (read+write) misses (Count)
system.l2.demandMisses::cpu.data              1012326                       # number of demand (read+write) misses (Count)
system.l2.demandMisses::total                 1014612                       # number of demand (read+write) misses (Count)
system.l2.overallMisses::cpu.inst                2286                       # number of overall misses (Count)
system.l2.overallMisses::cpu.data             1012326                       # number of overall misses (Count)
system.l2.overallMisses::total                1014612                       # number of overall misses (Count)
system.l2.demandMissLatency::cpu.inst       182535000                       # number of demand (read+write) miss ticks (Tick)
system.l2.demandMissLatency::cpu.data     76027996000                       # number of demand (read+write) miss ticks (Tick)
system.l2.demandMissLatency::total        76210531000                       # number of demand (read+write) miss ticks (Tick)
system.l2.overallMissLatency::cpu.inst      182535000                       # number of overall miss ticks (Tick)
system.l2.overallMissLatency::cpu.data    76027996000                       # number of overall miss ticks (Tick)
system.l2.overallMissLatency::total       76210531000                       # number of overall miss ticks (Tick)
system.l2.demandAccesses::cpu.inst              29977                       # number of demand (read+write) accesses (Count)
system.l2.demandAccesses::cpu.data            1554486                       # number of demand (read+write) accesses (Count)
system.l2.demandAccesses::total               1584463                       # number of demand (read+write) accesses (Count)
system.l2.overallAccesses::cpu.inst             29977                       # number of overall (read+write) accesses (Count)
system.l2.overallAccesses::cpu.data           1554486                       # number of overall (read+write) accesses (Count)
system.l2.overallAccesses::total              1584463                       # number of overall (read+write) accesses (Count)
system.l2.demandMissRate::cpu.inst           0.076258                       # miss rate for demand accesses (Ratio)
system.l2.demandMissRate::cpu.data           0.651229                       # miss rate for demand accesses (Ratio)
system.l2.demandMissRate::total              0.640351                       # miss rate for demand accesses (Ratio)
system.l2.overallMissRate::cpu.inst          0.076258                       # miss rate for overall accesses (Ratio)
system.l2.overallMissRate::cpu.data          0.651229                       # miss rate for overall accesses (Ratio)
system.l2.overallMissRate::total             0.640351                       # miss rate for overall accesses (Ratio)
system.l2.demandAvgMissLatency::cpu.inst 79849.081365                       # average overall miss latency in ticks ((Tick/Count))
system.l2.demandAvgMissLatency::cpu.data 75102.285232                       # average overall miss latency in ticks ((Tick/Count))
system.l2.demandAvgMissLatency::total    75112.980134                       # average overall miss latency in ticks ((Tick/Count))
system.l2.overallAvgMissLatency::cpu.inst 79849.081365                       # average overall miss latency ((Tick/Count))
system.l2.overallAvgMissLatency::cpu.data 75102.285232                       # average overall miss latency ((Tick/Count))
system.l2.overallAvgMissLatency::total   75112.980134                       # average overall miss latency ((Tick/Count))
system.l2.blockedCycles::no_mshrs                   0                       # number of cycles access was blocked (Cycle)
system.l2.blockedCycles::no_targets                 0                       # number of cycles access was blocked (Cycle)
system.l2.blockedCauses::no_mshrs                   0                       # number of times access was blocked (Count)
system.l2.blockedCauses::no_targets                 0                       # number of times access was blocked (Count)
system.l2.avgBlocked::no_mshrs                    nan                       # average number of cycles each access was blocked ((Cycle/Count))
system.l2.avgBlocked::no_targets                  nan                       # average number of cycles each access was blocked ((Cycle/Count))
system.l2.writebacks::writebacks                79854                       # number of writebacks (Count)
system.l2.writebacks::total                     79854                       # number of writebacks (Count)
system.l2.demandMshrHits::cpu.inst                  4                       # number of demand (read+write) MSHR hits (Count)
system.l2.demandMshrHits::cpu.data                 16                       # number of demand (read+write) MSHR hits (Count)
system.l2.demandMshrHits::total                    20                       # number of demand (read+write) MSHR hits (Count)
system.l2.overallMshrHits::cpu.inst                 4                       # number of overall MSHR hits (Count)
system.l2.overallMshrHits::cpu.data                16                       # number of overall MSHR hits (Count)
system.l2.overallMshrHits::total                   20                       # number of overall MSHR hits (Count)
system.l2.demandMshrMisses::cpu.inst             2282                       # number of demand (read+write) MSHR misses (Count)
system.l2.demandMshrMisses::cpu.data          1012310                       # number of demand (read+write) MSHR misses (Count)
system.l2.demandMshrMisses::total             1014592                       # number of demand (read+write) MSHR misses (Count)
system.l2.overallMshrMisses::cpu.inst            2282                       # number of overall MSHR misses (Count)
system.l2.overallMshrMisses::cpu.data         1012310                       # number of overall MSHR misses (Count)
system.l2.overallMshrMisses::total            1014592                       # number of overall MSHR misses (Count)
system.l2.demandMshrMissLatency::cpu.inst    159510000                       # number of demand (read+write) MSHR miss ticks (Tick)
system.l2.demandMshrMissLatency::cpu.data  65903630500                       # number of demand (read+write) MSHR miss ticks (Tick)
system.l2.demandMshrMissLatency::total    66063140500                       # number of demand (read+write) MSHR miss ticks (Tick)
system.l2.overallMshrMissLatency::cpu.inst    159510000                       # number of overall MSHR miss ticks (Tick)
system.l2.overallMshrMissLatency::cpu.data  65903630500                       # number of overall MSHR miss ticks (Tick)
system.l2.overallMshrMissLatency::total   66063140500                       # number of overall MSHR miss ticks (Tick)
system.l2.demandMshrMissRate::cpu.inst       0.076125                       # mshr miss ratio for demand accesses (Ratio)
system.l2.demandMshrMissRate::cpu.data       0.651218                       # mshr miss ratio for demand accesses (Ratio)
system.l2.demandMshrMissRate::total          0.640338                       # mshr miss ratio for demand accesses (Ratio)
system.l2.overallMshrMissRate::cpu.inst      0.076125                       # mshr miss ratio for overall accesses (Ratio)
system.l2.overallMshrMissRate::cpu.data      0.651218                       # mshr miss ratio for overall accesses (Ratio)
system.l2.overallMshrMissRate::total         0.640338                       # mshr miss ratio for overall accesses (Ratio)
system.l2.demandAvgMshrMissLatency::cpu.inst 69899.211218                       # average overall mshr miss latency ((Tick/Count))
system.l2.demandAvgMshrMissLatency::cpu.data 65102.222145                       # average overall mshr miss latency ((Tick/Count))
system.l2.demandAvgMshrMissLatency::total 65113.011437                       # average overall mshr miss latency ((Tick/Count))
system.l2.overallAvgMshrMissLatency::cpu.inst 69899.211218                       # average overall mshr miss latency ((Tick/Count))
system.l2.overallAvgMshrMissLatency::cpu.data 65102.222145                       # average overall mshr miss latency ((Tick/Count))
system.l2.overallAvgMshrMissLatency::total 65113.011437                       # average overall mshr miss latency ((Tick/Count))
system.l2.replacements                        1083652                       # number of replacements (Count)
system.l2.CleanEvict.mshrMisses::writebacks       376295                       # number of CleanEvict MSHR misses (Count)
system.l2.CleanEvict.mshrMisses::total         376295                       # number of CleanEvict MSHR misses (Count)
system.l2.CleanEvict.mshrMissRate::writebacks          inf                       # mshr miss rate for CleanEvict accesses (Ratio)
system.l2.CleanEvict.mshrMissRate::total          inf                       # mshr miss rate for CleanEvict accesses (Ratio)
system.l2.ReadCleanReq.hits::cpu.inst           27691                       # number of ReadCleanReq hits (Count)
system.l2.ReadCleanReq.hits::total              27691                       # number of ReadCleanReq hits (Count)
system.l2.ReadCleanReq.misses::cpu.inst          2286                       # number of ReadCleanReq misses (Count)
system.l2.ReadCleanReq.misses::total             2286                       # number of ReadCleanReq misses (Count)
system.l2.ReadCleanReq.missLatency::cpu.inst    182535000                       # number of ReadCleanReq miss ticks (Tick)
system.l2.ReadCleanReq.missLatency::total    182535000                       # number of ReadCleanReq miss ticks (Tick)
system.l2.ReadCleanReq.accesses::cpu.inst        29977                       # number of ReadCleanReq accesses(hits+misses) (Count)
system.l2.ReadCleanReq.accesses::total          29977                       # number of ReadCleanReq accesses(hits+misses) (Count)
system.l2.ReadCleanReq.missRate::cpu.inst     0.076258                       # miss rate for ReadCleanReq accesses (Ratio)
system.l2.ReadCleanReq.missRate::total       0.076258                       # miss rate for ReadCleanReq accesses (Ratio)
system.l2.ReadCleanReq.avgMissLatency::cpu.inst 79849.081365                       # average ReadCleanReq miss latency ((Tick/Count))
system.l2.ReadCleanReq.avgMissLatency::total 79849.081365                       # average ReadCleanReq miss latency ((Tick/Count))
system.l2.ReadCleanReq.mshrHits::cpu.inst            4                       # number of ReadCleanReq MSHR hits (Count)
system.l2.ReadCleanReq.mshrHits::total              4                       # number of ReadCleanReq MSHR hits (Count)
system.l2.ReadCleanReq.mshrMisses::cpu.inst         2282                       # number of ReadCleanReq MSHR misses (Count)
system.l2.ReadCleanReq.mshrMisses::total         2282                       # number of ReadCleanReq MSHR misses (Count)
system.l2.ReadCleanReq.mshrMissLatency::cpu.inst    159510000                       # number of ReadCleanReq MSHR miss ticks (Tick)
system.l2.ReadCleanReq.mshrMissLatency::total    159510000                       # number of ReadCleanReq MSHR miss ticks (Tick)
system.l2.ReadCleanReq.mshrMissRate::cpu.inst     0.076125                       # mshr miss rate for ReadCleanReq accesses (Ratio)
system.l2.ReadCleanReq.mshrMissRate::total     0.076125                       # mshr miss rate for ReadCleanReq accesses (Ratio)
system.l2.ReadCleanReq.avgMshrMissLatency::cpu.inst 69899.211218                       # average ReadCleanReq mshr miss latency ((Tick/Count))
system.l2.ReadCleanReq.avgMshrMissLatency::total 69899.211218                       # average ReadCleanReq mshr miss latency ((Tick/Count))
system.l2.ReadExReq.hits::cpu.data              47499                       # number of ReadExReq hits (Count)
system.l2.ReadExReq.hits::total                 47499                       # number of ReadExReq hits (Count)
system.l2.ReadExReq.misses::cpu.data            30303                       # number of ReadExReq misses (Count)
system.l2.ReadExReq.misses::total               30303                       # number of ReadExReq misses (Count)
system.l2.ReadExReq.missLatency::cpu.data   2024528500                       # number of ReadExReq miss ticks (Tick)
system.l2.ReadExReq.missLatency::total     2024528500                       # number of ReadExReq miss ticks (Tick)
system.l2.ReadExReq.accesses::cpu.data          77802                       # number of ReadExReq accesses(hits+misses) (Count)
system.l2.ReadExReq.accesses::total             77802                       # number of ReadExReq accesses(hits+misses) (Count)
system.l2.ReadExReq.missRate::cpu.data       0.389489                       # miss rate for ReadExReq accesses (Ratio)
system.l2.ReadExReq.missRate::total          0.389489                       # miss rate for ReadExReq accesses (Ratio)
system.l2.ReadExReq.avgMissLatency::cpu.data 66809.507310                       # average ReadExReq miss latency ((Tick/Count))
system.l2.ReadExReq.avgMissLatency::total 66809.507310                       # average ReadExReq miss latency ((Tick/Count))
system.l2.ReadExReq.mshrMisses::cpu.data        30303                       # number of ReadExReq MSHR misses (Count)
system.l2.ReadExReq.mshrMisses::total           30303                       # number of ReadExReq MSHR misses (Count)
system.l2.ReadExReq.mshrMissLatency::cpu.data   1721498500                       # number of ReadExReq MSHR miss ticks (Tick)
system.l2.ReadExReq.mshrMissLatency::total   1721498500                       # number of ReadExReq MSHR miss ticks (Tick)
system.l2.ReadExReq.mshrMissRate::cpu.data     0.389489                       # mshr miss rate for ReadExReq accesses (Ratio)
system.l2.ReadExReq.mshrMissRate::total      0.389489                       # mshr miss rate for ReadExReq accesses (Ratio)
system.l2.ReadExReq.avgMshrMissLatency::cpu.data 56809.507310                       # average ReadExReq mshr miss latency ((Tick/Count))
system.l2.ReadExReq.avgMshrMissLatency::total 56809.507310                       # average ReadExReq mshr miss latency ((Tick/Count))
system.l2.ReadSharedReq.hits::cpu.data         494661                       # number of ReadSharedReq hits (Count)
system.l2.ReadSharedReq.hits::total            494661                       # number of ReadSharedReq hits (Count)
system.l2.ReadSharedReq.misses::cpu.data       982023                       # number of ReadSharedReq misses (Count)
system.l2.ReadSharedReq.misses::total          982023                       # number of ReadSharedReq misses (Count)
system.l2.ReadSharedReq.missLatency::cpu.data  74003467500                       # number of ReadSharedReq miss ticks (Tick)
system.l2.ReadSharedReq.missLatency::total  74003467500                       # number of ReadSharedReq miss ticks (Tick)
system.l2.ReadSharedReq.accesses::cpu.data      1476684                       # number of ReadSharedReq accesses(hits+misses) (Count)
system.l2.ReadSharedReq.accesses::total       1476684                       # number of ReadSharedReq accesses(hits+misses) (Count)
system.l2.ReadSharedReq.missRate::cpu.data     0.665019                       # miss rate for ReadSharedReq accesses (Ratio)
system.l2.ReadSharedReq.missRate::total      0.665019                       # miss rate for ReadSharedReq accesses (Ratio)
system.l2.ReadSharedReq.avgMissLatency::cpu.data 75358.181529                       # average ReadSharedReq miss latency ((Tick/Count))
system.l2.ReadSharedReq.avgMissLatency::total 75358.181529                       # average ReadSharedReq miss latency ((Tick/Count))
system.l2.ReadSharedReq.mshrHits::cpu.data           16                       # number of ReadSharedReq MSHR hits (Count)
system.l2.ReadSharedReq.mshrHits::total            16                       # number of ReadSharedReq MSHR hits (Count)
system.l2.ReadSharedReq.mshrMisses::cpu.data       982007                       # number of ReadSharedReq MSHR misses (Count)
system.l2.ReadSharedReq.mshrMisses::total       982007                       # number of ReadSharedReq MSHR misses (Count)
system.l2.ReadSharedReq.mshrMissLatency::cpu.data  64182132000                       # number of ReadSharedReq MSHR miss ticks (Tick)
system.l2.ReadSharedReq.mshrMissLatency::total  64182132000                       # number of ReadSharedReq MSHR miss ticks (Tick)
system.l2.ReadSharedReq.mshrMissRate::cpu.data     0.665008                       # mshr miss rate for ReadSharedReq accesses (Ratio)
system.l2.ReadSharedReq.mshrMissRate::total     0.665008                       # mshr miss rate for ReadSharedReq accesses (Ratio)
system.l2.ReadSharedReq.avgMshrMissLatency::cpu.data 65358.120665                       # average ReadSharedReq mshr miss latency ((Tick/Count))
system.l2.ReadSharedReq.avgMshrMissLatency::total 65358.120665                       # average ReadSharedReq mshr miss latency ((Tick/Count))
system.l2.WritebackClean.hits::writebacks        29351                       # number of WritebackClean hits (Count)
system.l2.WritebackClean.hits::total            29351                       # number of WritebackClean hits (Count)
system.l2.WritebackClean.accesses::writebacks        29351                       # number of WritebackClean accesses(hits+misses) (Count)
system.l2.WritebackClean.accesses::total        29351                       # number of WritebackClean accesses(hits+misses) (Count)
system.l2.WritebackDirty.hits::writebacks       229163                       # number of WritebackDirty hits (Count)
system.l2.WritebackDirty.hits::total           229163                       # number of WritebackDirty hits (Count)
system.l2.WritebackDirty.accesses::writebacks       229163                       # number of WritebackDirty accesses(hits+misses) (Count)
system.l2.WritebackDirty.accesses::total       229163                       # number of WritebackDirty accesses(hits+misses) (Count)
system.l2.power_state.pwrStateResidencyTicks::UNDEFINED 182632061000                       # Cumulative time (in ticks) in various power states (Tick)
system.l2.tags.tagsInUse                   511.928930                       # Average ticks per tags in use ((Tick/Count))
system.l2.tags.totalRefs                      2786944                       # Total number of references to valid blocks. (Count)
system.l2.tags.sampledRefs                    1084164                       # Sample count of references to valid blocks. (Count)
system.l2.tags.avgRefs                       2.570593                       # Average number of references to valid blocks. ((Count/Count))
system.l2.tags.warmupTick                       77000                       # The tick when the warmup percentage was hit. (Tick)
system.l2.tags.occupancies::writebacks      43.041971                       # Average occupied blocks per tick, per requestor ((Count/Tick))
system.l2.tags.occupancies::cpu.inst         0.846113                       # Average occupied blocks per tick, per requestor ((Count/Tick))
system.l2.tags.occupancies::cpu.data       468.040846                       # Average occupied blocks per tick, per requestor ((Count/Tick))
system.l2.tags.avgOccs::writebacks           0.084066                       # Average percentage of cache occupancy ((Ratio/Tick))
system.l2.tags.avgOccs::cpu.inst             0.001653                       # Average percentage of cache occupancy ((Ratio/Tick))
system.l2.tags.avgOccs::cpu.data             0.914142                       # Average percentage of cache occupancy ((Ratio/Tick))
system.l2.tags.avgOccs::total                0.999861                       # Average percentage of cache occupancy ((Ratio/Tick))
system.l2.tags.occupanciesTaskId::1024            512                       # Occupied blocks per task id (Count)
system.l2.tags.ageTaskId_1024::0                  165                       # Occupied blocks per task id, per block age (Count)
system.l2.tags.ageTaskId_1024::1                  203                       # Occupied blocks per task id, per block age (Count)
system.l2.tags.ageTaskId_1024::2                  144                       # Occupied blocks per task id, per block age (Count)
system.l2.tags.ratioOccsTaskId::1024                1                       # Ratio of occupied blocks and all blocks, per task id (Ratio)
system.l2.tags.tagAccesses                   26390244                       # Number of tag accesses (Count)
system.l2.tags.dataAccesses                  26390244                       # Number of data accesses (Count)
system.l2.tags.power_state.pwrStateResidencyTicks::UNDEFINED 182632061000                       # Cumulative time (in ticks) in various power states (Tick)
system.mem_ctrls.avgPriority_writebacks::samples     71154.00                       # Average QoS priority value for accepted requests (Count)
system.mem_ctrls.avgPriority_cpu.inst::samples      2281.00                       # Average QoS priority value for accepted requests (Count)
system.mem_ctrls.avgPriority_cpu.data::samples    977246.00                       # Average QoS priority value for accepted requests (Count)
system.mem_ctrls.priorityMinLatency      0.000000018750                       # per QoS priority minimum request to response latency (Second)
system.mem_ctrls.priorityMaxLatency      0.004100314500                       # per QoS priority maximum request to response latency (Second)
system.mem_ctrls.numReadWriteTurnArounds         4158                       # Number of turnarounds from READ to WRITE (Count)
[...]
system.mem_ctrls.dram.perBankWrBursts::9         1106                       # Per bank write bursts (Count)
system.mem_ctrls.dram.perBankWrBursts::10         1066                       # Per bank write bursts (Count)
system.mem_ctrls.dram.perBankWrBursts::11         1569                       # Per bank write bursts (Count)
system.mem_ctrls.dram.perBankWrBursts::12         1477                       # Per bank write bursts (Count)
system.mem_ctrls.dram.perBankWrBursts::13         1396                       # Per bank write bursts (Count)
system.mem_ctrls.dram.perBankWrBursts::14        12982                       # Per bank write bursts (Count)
system.mem_ctrls.dram.perBankWrBursts::15         3424                       # Per bank write bursts (Count)
system.mem_ctrls.dram.totQLat              6157585000                       # Total ticks spent queuing (Tick)
system.mem_ctrls.dram.totBusLat            4897635000                       # Total ticks spent in databus transfers (Tick)
system.mem_ctrls.dram.totMemAccLat        24523716250                       # Total ticks spent from burst creation until serviced by the DRAM (Tick)
system.mem_ctrls.dram.avgQLat                 6286.28                       # Average queueing delay per DRAM burst ((Tick/Count))
system.mem_ctrls.dram.avgBusLat               5000.00                       # Average bus latency per DRAM burst ((Tick/Count))
system.mem_ctrls.dram.avgMemAccLat           25036.28                       # Average memory access latency per DRAM burst ((Tick/Count))
system.mem_ctrls.dram.readRowHits              821163                       # Number of row buffer hits during reads (Count)
system.mem_ctrls.dram.writeRowHits              60317                       # Number of row buffer hits during writes (Count)
system.mem_ctrls.dram.readRowHitRate            83.83                       # Row buffer hit rate for reads (Ratio)
system.mem_ctrls.dram.writeRowHitRate           84.79                       # Row buffer hit rate for writes (Ratio)
system.mem_ctrls.dram.bytesPerActivate::samples       169176                       # Bytes accessed per row activation (Byte)
system.mem_ctrls.dram.bytesPerActivate::mean   397.462335                       # Bytes accessed per row activation (Byte)
system.mem_ctrls.dram.bytesPerActivate::gmean   249.861690                       # Bytes accessed per row activation (Byte)
system.mem_ctrls.dram.bytesPerActivate::stdev   348.362003                       # Bytes accessed per row activation (Byte)
system.mem_ctrls.dram.bytesPerActivate::0-127        42398     25.06%     25.06% # Bytes accessed per row activation (Byte)
system.mem_ctrls.dram.bytesPerActivate::128-255        36592     21.63%     46.69% # Bytes accessed per row activation (Byte)
system.mem_ctrls.dram.bytesPerActivate::256-383        20648     12.21%     58.90% # Bytes accessed per row activation (Byte)
system.mem_ctrls.dram.bytesPerActivate::384-511        13363      7.90%     66.79% # Bytes accessed per row activation (Byte)
system.mem_ctrls.dram.bytesPerActivate::512-639        10233      6.05%     72.84% # Bytes accessed per row activation (Byte)
system.mem_ctrls.dram.bytesPerActivate::640-767         8296      4.90%     77.75% # Bytes accessed per row activation (Byte)
system.mem_ctrls.dram.bytesPerActivate::768-895         6715      3.97%     81.72% # Bytes accessed per row activation (Byte)
system.mem_ctrls.dram.bytesPerActivate::896-1023         7073      4.18%     85.90% # Bytes accessed per row activation (Byte)
system.mem_ctrls.dram.bytesPerActivate::1024-1151        23858     14.10%    100.00% # Bytes accessed per row activation (Byte)
system.mem_ctrls.dram.bytesPerActivate::total       169176                       # Bytes accessed per row activation (Byte)
system.mem_ctrls.dram.bytesRead              62689728                       # Total bytes read (Byte)
system.mem_ctrls.dram.bytesWritten            4552768                       # Total bytes written (Byte)
system.mem_ctrls.dram.avgRdBW              343.256971                       # Average DRAM read bandwidth in MiBytes/s ((Byte/Second))
system.mem_ctrls.dram.avgWrBW               24.928635                       # Average DRAM write bandwidth in MiBytes/s ((Byte/Second))
system.mem_ctrls.dram.peakBW                 12800.00                       # Theoretical peak bandwidth in MiByte/s ((Byte/Second))
system.mem_ctrls.dram.busUtil                    2.88                       # Data bus utilization in percentage (Ratio)
system.mem_ctrls.dram.busUtilRead                2.68                       # Data bus utilization in percentage for reads (Ratio)
system.mem_ctrls.dram.busUtilWrite               0.19                       # Data bus utilization in percentage for writes (Ratio)
system.mem_ctrls.dram.pageHitRate               83.90                       # Row buffer hit rate, read and write combined (Ratio)
system.mem_ctrls.dram.power_state.pwrStateResidencyTicks::UNDEFINED 182632061000                       # Cumulative time (in ticks) in various power states (Tick)
system.mem_ctrls.dram.rank0.actEnergy       798644700                       # Energy for activate commands per rank (pJ) (Joule)
system.mem_ctrls.dram.rank0.preEnergy       424466955                       # Energy for precharge commands per rank (pJ) (Joule)
system.mem_ctrls.dram.rank0.readEnergy     3899896560                       # Energy for read commands per rank (pJ) (Joule)
system.mem_ctrls.dram.rank0.writeEnergy     243690480                       # Energy for write commands per rank (pJ) (Joule)
system.mem_ctrls.dram.rank0.refreshEnergy 14416381200.000002                       # Energy for refresh commands per rank (pJ) (Joule)
system.mem_ctrls.dram.rank0.actBackEnergy  67061744310                       # Energy for active background per rank (pJ) (Joule)
system.mem_ctrls.dram.rank0.preBackEnergy  13657663680                       # Energy for precharge background per rank (pJ) (Joule)
system.mem_ctrls.dram.rank0.actPowerDownEnergy            0                       # Energy for active power-down per rank (pJ) (Joule)
system.mem_ctrls.dram.rank0.prePowerDownEnergy            0                       # Energy for precharge power-down per rank (pJ) (Joule)
system.mem_ctrls.dram.rank0.selfRefreshEnergy            0                       # Energy for self refresh per rank (pJ) (Joule)
system.mem_ctrls.dram.rank0.totalEnergy  100502487885                       # Total energy per rank (pJ) (Joule)
system.mem_ctrls.dram.rank0.averagePower   550.300354                       # Core power per rank (mW) (Watt)
system.mem_ctrls.dram.rank0.totalIdleTime            0                       # Total Idle time Per DRAM Rank (Tick)
system.mem_ctrls.dram.rank0.pwrStateTime::IDLE  34938313500                       # Time in different power states (Tick)
system.mem_ctrls.dram.rank0.pwrStateTime::REF   6098300000                       # Time in different power states (Tick)
system.mem_ctrls.dram.rank0.pwrStateTime::SREF            0                       # Time in different power states (Tick)
system.mem_ctrls.dram.rank0.pwrStateTime::PRE_PDN            0                       # Time in different power states (Tick)
system.mem_ctrls.dram.rank0.pwrStateTime::ACT 141595447500                       # Time in different power states (Tick)
system.mem_ctrls.dram.rank0.pwrStateTime::ACT_PDN            0                       # Time in different power states (Tick)
system.mem_ctrls.dram.rank1.actEnergy       409329060                       # Energy for activate commands per rank (pJ) (Joule)
system.mem_ctrls.dram.rank1.preEnergy       217555965                       # Energy for precharge commands per rank (pJ) (Joule)
system.mem_ctrls.dram.rank1.readEnergy     3093926220                       # Energy for read commands per rank (pJ) (Joule)
system.mem_ctrls.dram.rank1.writeEnergy     127644660                       # Energy for write commands per rank (pJ) (Joule)
system.mem_ctrls.dram.rank1.refreshEnergy 14416381200.000002                       # Energy for refresh commands per rank (pJ) (Joule)
system.mem_ctrls.dram.rank1.actBackEnergy  53902720890                       # Energy for active background per rank (pJ) (Joule)
system.mem_ctrls.dram.rank1.preBackEnergy  24738946560                       # Energy for precharge background per rank (pJ) (Joule)
system.mem_ctrls.dram.rank1.actPowerDownEnergy            0                       # Energy for active power-down per rank (pJ) (Joule)
system.mem_ctrls.dram.rank1.prePowerDownEnergy            0                       # Energy for precharge power-down per rank (pJ) (Joule)
system.mem_ctrls.dram.rank1.selfRefreshEnergy            0                       # Energy for self refresh per rank (pJ) (Joule)
system.mem_ctrls.dram.rank1.totalEnergy   96906504555                       # Total energy per rank (pJ) (Joule)
system.mem_ctrls.dram.rank1.averagePower   530.610584                       # Core power per rank (mW) (Watt)
system.mem_ctrls.dram.rank1.totalIdleTime            0                       # Total Idle time Per DRAM Rank (Tick)
system.mem_ctrls.dram.rank1.pwrStateTime::IDLE  63779148750                       # Time in different power states (Tick)
system.mem_ctrls.dram.rank1.pwrStateTime::REF   6098300000                       # Time in different power states (Tick)
system.mem_ctrls.dram.rank1.pwrStateTime::SREF            0                       # Time in different power states (Tick)
system.mem_ctrls.dram.rank1.pwrStateTime::PRE_PDN            0                       # Time in different power states (Tick)
system.mem_ctrls.dram.rank1.pwrStateTime::ACT 112754612250                       # Time in different power states (Tick)
system.mem_ctrls.dram.rank1.pwrStateTime::ACT_PDN            0                       # Time in different power states (Tick)
system.mem_ctrls.power_state.pwrStateResidencyTicks::UNDEFINED 182632061000                       # Cumulative time (in ticks) in various power states (Tick)
system.membus.transDist::ReadResp              984288                       # Transaction distribution (Count)
system.membus.transDist::WritebackDirty         79854                       # Transaction distribution (Count)
system.membus.transDist::CleanEvict            931972                       # Transaction distribution (Count)
system.membus.transDist::ReadExReq              30303                       # Transaction distribution (Count)
system.membus.transDist::ReadExResp             30303                       # Transaction distribution (Count)
system.membus.transDist::ReadSharedReq         984288                       # Transaction distribution (Count)
system.membus.pktCount_system.l2.mem_side_port::system.mem_ctrls.port      3041008                       # Packet count per connected requestor and responder (Count)
system.membus.pktCount::total                 3041008                       # Packet count per connected requestor and responder (Count)
system.membus.pktSize_system.l2.mem_side_port::system.mem_ctrls.port     70044480                       # Cumulative packet size per connected requestor and responder (Byte)
system.membus.pktSize::total                 70044480                       # Cumulative packet size per connected requestor and responder (Byte)
system.membus.snoops                                0                       # Total snoops (Count)
system.membus.snoopTraffic                          0                       # Total snoop traffic (Byte)
system.membus.snoopFanout::samples            1014591                       # Request fanout histogram (Count)
system.membus.snoopFanout::mean                     0                       # Request fanout histogram (Count)
system.membus.snoopFanout::stdev                    0                       # Request fanout histogram (Count)
system.membus.snoopFanout::underflows               0      0.00%      0.00% # Request fanout histogram (Count)
system.membus.snoopFanout::0                  1014591    100.00%    100.00% # Request fanout histogram (Count)
system.membus.snoopFanout::1                        0      0.00%    100.00% # Request fanout histogram (Count)
system.membus.snoopFanout::overflows                0      0.00%    100.00% # Request fanout histogram (Count)
system.membus.snoopFanout::min_value                0                       # Request fanout histogram (Count)
system.membus.snoopFanout::max_value                0                       # Request fanout histogram (Count)
system.membus.snoopFanout::total              1014591                       # Request fanout histogram (Count)
system.membus.power_state.pwrStateResidencyTicks::UNDEFINED 182632061000                       # Cumulative time (in ticks) in various power states (Tick)
system.membus.reqLayer0.occupancy          3060122500                       # Layer occupancy (ticks) (Tick)
system.membus.reqLayer0.utilization               0.0                       # Layer utilization (Ratio)
system.membus.respLayer1.occupancy         5359837000                       # Layer occupancy (ticks) (Tick)
system.membus.respLayer1.utilization              0.0                       # Layer utilization (Ratio)
system.membus.snoop_filter.totRequests        2026417                       # Total number of requests made to the snoop filter. (Count)
system.membus.snoop_filter.hitSingleRequests      1013805                       # Number of requests hitting in the snoop filter with a single holder of the requested data. (Count)
system.membus.snoop_filter.hitMultiRequests            0                       # Number of requests hitting in the snoop filter with multiple (>1) holders of the requested data. (Count)
system.membus.snoop_filter.totSnoops                0                       # Total number of snoops made to the snoop filter. (Count)
system.membus.snoop_filter.hitSingleSnoops            0                       # Number of snoops hitting in the snoop filter with a single holder of the requested data. (Count)
system.membus.snoop_filter.hitMultiSnoops            0                       # Number of snoops hitting in the snoop filter with multiple (>1) holders of the requested data. (Count)
system.tol2bus.transDist::ReadResp            1506660                       # Transaction distribution (Count)
system.tol2bus.transDist::WritebackDirty       309017                       # Transaction distribution (Count)
system.tol2bus.transDist::WritebackClean        29720                       # Transaction distribution (Count)
system.tol2bus.transDist::CleanEvict          2328865                       # Transaction distribution (Count)
system.tol2bus.transDist::ReadExReq             77802                       # Transaction distribution (Count)
system.tol2bus.transDist::ReadExResp            77802                       # Transaction distribution (Count)
system.tol2bus.transDist::ReadCleanReq          29977                       # Transaction distribution (Count)
system.tol2bus.transDist::ReadSharedReq       1476684                       # Transaction distribution (Count)
system.tol2bus.pktCount_system.cpu.icache.mem_side_port::system.l2.cpu_side_port        89673                       # Packet count per connected requestor and responder (Count)
system.tol2bus.pktCount_system.cpu.dcache.mem_side_port::system.l2.cpu_side_port      4663202                       # Packet count per connected requestor and responder (Count)
system.tol2bus.pktCount::total                4752875                       # Packet count per connected requestor and responder (Count)
system.tol2bus.pktSize_system.cpu.icache.mem_side_port::system.l2.cpu_side_port      3820544                       # Cumulative packet size per connected requestor and responder (Byte)
system.tol2bus.pktSize_system.cpu.dcache.mem_side_port::system.l2.cpu_side_port    114153536                       # Cumulative packet size per connected requestor and responder (Byte)
system.tol2bus.pktSize::total               117974080                       # Cumulative packet size per connected requestor and responder (Byte)
system.tol2bus.snoops                         1083652                       # Total snoops (Count)
system.tol2bus.snoopTraffic                   5110656                       # Total snoop traffic (Byte)
system.tol2bus.snoopFanout::samples           2668115                       # Request fanout histogram (Count)
system.tol2bus.snoopFanout::mean             0.170217                       # Request fanout histogram (Count)
system.tol2bus.snoopFanout::stdev            0.376687                       # Request fanout histogram (Count)
system.tol2bus.snoopFanout::underflows              0      0.00%      0.00% # Request fanout histogram (Count)
system.tol2bus.snoopFanout::0                 2214823     83.01%     83.01% # Request fanout histogram (Count)
system.tol2bus.snoopFanout::1                  452425     16.96%     99.97% # Request fanout histogram (Count)
system.tol2bus.snoopFanout::2                     867      0.03%    100.00% # Request fanout histogram (Count)
system.tol2bus.snoopFanout::overflows               0      0.00%    100.00% # Request fanout histogram (Count)
system.tol2bus.snoopFanout::min_value               0                       # Request fanout histogram (Count)
system.tol2bus.snoopFanout::max_value               2                       # Request fanout histogram (Count)
system.tol2bus.snoopFanout::total             2668115                       # Request fanout histogram (Count)
system.tol2bus.power_state.pwrStateResidencyTicks::UNDEFINED 182632061000                       # Cumulative time (in ticks) in various power states (Tick)
system.tol2bus.reqLayer0.occupancy         1843089500                       # Layer occupancy (ticks) (Tick)
system.tol2bus.reqLayer0.utilization              0.0                       # Layer utilization (Ratio)
system.tol2bus.respLayer0.occupancy          44965996                       # Layer occupancy (ticks) (Tick)
system.tol2bus.respLayer0.utilization             0.0                       # Layer utilization (Ratio)
system.tol2bus.respLayer1.occupancy        2331736984                       # Layer occupancy (ticks) (Tick)
system.tol2bus.respLayer1.utilization             0.0                       # Layer utilization (Ratio)
system.tol2bus.snoop_filter.totRequests       3168413                       # Total number of requests made to the snoop filter. (Count)
system.tol2bus.snoop_filter.hitSingleRequests      1583968                       # Number of requests hitting in the snoop filter with a single holder of the requested data. (Count)
system.tol2bus.snoop_filter.hitMultiRequests         5153                       # Number of requests hitting in the snoop filter with multiple (>1) holders of the requested data. (Count)
system.tol2bus.snoop_filter.totSnoops          448121                       # Total number of snoops made to the snoop filter. (Count)
system.tol2bus.snoop_filter.hitSingleSnoops       447254                       # Number of snoops hitting in the snoop filter with a single holder of the requested data. (Count)
system.tol2bus.snoop_filter.hitMultiSnoops          867                       # Number of snoops hitting in the snoop filter with multiple (>1) holders of the requested data. (Count)
system.voltage_domain.voltage                       1                       # Voltage in Volts (Volt)
system.workload.inst.arm                            0                       # number of arm instructions executed (Count)
system.workload.inst.quiesce                        0                       # number of quiesce instructions executed (Count)
system.cpu.idleCycles                        83730867                       # Total number of cycles that the object has spent stopped (Unspecified)
system.cpu.tickCycles                        98901194                       # Number of cycles that the object actually ticked (Unspecified)

---------- End Simulation Statistics   ----------
