
---------- Begin Simulation Statistics ----------
simSeconds                                   0.023350                       # Number of seconds simulated (Second)
simTicks                                  23349848000                       # Number of ticks simulated (Tick)
finalTick                                 23349848000                       # Number of ticks from beginning of simulation (restored from checkpoints and never reset) (Tick)
simFreq                                  1000000000000                       # The number of ticks per simulated second ((Tick/Second))
hostSeconds                                     22.12                       # Real time elapsed on the host (Second)
hostTickRate                               1055422119                       # The number of ticks simulated per host second (ticks/s) ((Tick/Second))
hostMemory                                     673324                       # Number of bytes of host memory used (Byte)
simInsts                                      6116290                       # Number of instructions simulated (Count)
simOps                                        6116468                       # Number of ops (including micro ops) simulated (Count)
hostInstRate                                   276457                       # Simulator instruction rate (inst/s) ((Count/Second))
hostOpRate                                     276465                       # Simulator op (including micro ops) rate (op/s) ((Count/Second))
system.clk_domain.clock                          1000                       # Clock period in ticks (Tick)
system.cpu.numCycles                         23349848                       # Number of cpu cycles simulated (Cycle)
system.cpu.cpi                               3.817649                       # CPI: cycles per instruction (core level) ((Cycle/Count))
system.cpu.ipc                               0.261941                       # IPC: instructions per cycle (core level) ((Count/Cycle))
system.cpu.numWorkItemsStarted                      0                       # Number of work items this cpu started (Count)
system.cpu.numWorkItemsCompleted                    0                       # Number of work items this cpu completed (Count)
system.cpu.branchPred.lookups                  543565                       # Number of BP lookups (Count)
system.cpu.branchPred.condPredicted            333129                       # Number of conditional branches predicted (Count)
system.cpu.branchPred.condIncorrect             23651                       # Number of conditional branches incorrect (Count)
system.cpu.branchPred.BTBLookups               253046                       # Number of BTB lookups (Count)
system.cpu.branchPred.BTBUpdates                20003                       # Number of BTB updates (Count)
system.cpu.branchPred.BTBHits                  248545                       # Number of BTB hits (Count)
system.cpu.branchPred.BTBHitRatio            0.982213                       # BTB Hit Ratio (Ratio)
system.cpu.branchPred.RASUsed                   79205                       # Number of times the RAS was used to get a target. (Count)
system.cpu.branchPred.RASIncorrect              14005                       # Number of incorrect RAS predictions. (Count)
system.cpu.branchPred.indirectLookups            1971                       # Number of indirect predictor lookups. (Count)
system.cpu.branchPred.indirectHits               1737                       # Number of indirect target hits. (Count)
system.cpu.branchPred.indirectMisses              234                       # Number of indirect misses. (Count)
system.cpu.branchPred.indirectMispredicted          253                       # Number of mispredicted indirect branches. (Count)
system.cpu.commitStats0.numInsts              6116290                       # Number of instructions committed (thread level) (Count)
system.cpu.commitStats0.numOps                6116468                       # Number of ops (including micro ops) committed (thread level) (Count)
system.cpu.commitStats0.numInstsNotNOP              0                       # Number of instructions committed excluding NOPs or prefetches (Count)
system.cpu.commitStats0.numOpsNotNOP                0                       # Number of Ops (including micro ops) Simulated (Count)
system.cpu.commitStats0.cpi                  3.817649                       # CPI: cycles per instruction (thread level) ((Cycle/Count))
system.cpu.commitStats0.ipc                  0.261941                       # IPC: instructions per cycle (thread level) ((Count/Cycle))
system.cpu.commitStats0.numMemRefs                  0                       # Number of memory references committed (Count)
system.cpu.commitStats0.numFpInsts                  0                       # Number of float instructions (Count)
system.cpu.commitStats0.numIntInsts                 0                       # Number of integer instructions (Count)
system.cpu.commitStats0.numLoadInsts                0                       # Number of load instructions (Count)
system.cpu.commitStats0.numStoreInsts               0                       # Number of store instructions (Count)
system.cpu.commitStats0.numVecInsts                 0                       # Number of vector instructions (Count)
system.cpu.commitStats0.committedInstType::No_OpClass        16052      0.26%      0.26% # Class of committed instruction. (Count)
system.cpu.commitStats0.committedInstType::IntAlu      1998725     32.68%     32.94% # Class of committed instruction. (Count)
system.cpu.commitStats0.committedInstType::IntMult         7480      0.12%     33.06% # Class of committed instruction. (Count)
system.cpu.commitStats0.committedInstType::IntDiv         3019      0.05%     33.11% # Class of committed instruction. (Count)
system.cpu.commitStats0.committedInstType::FloatAdd       195206      3.19%     36.30% # Class of committed instruction. (Count)
system.cpu.commitStats0.committedInstType::FloatCmp        22650      0.37%     36.67% # Class of committed instruction. (Count)
system.cpu.commitStats0.committedInstType::FloatCvt       478050      7.82%     44.49% # Class of committed instruction. (Count)
system.cpu.commitStats0.committedInstType::FloatMult       325200      5.32%     49.81% # Class of committed instruction. (Count)
system.cpu.commitStats0.committedInstType::FloatMultAcc       220600      3.61%     53.41% # Class of committed instruction. (Count)
system.cpu.commitStats0.committedInstType::FloatDiv        30000      0.49%     53.90% # Class of committed instruction. (Count)
system.cpu.commitStats0.committedInstType::FloatMisc       109475      1.79%     55.69% # Class of committed instruction. (Count)
system.cpu.commitStats0.committedInstType::FloatSqrt         7500      0.12%     55.82% # Class of committed instruction. (Count)
system.cpu.commitStats0.committedInstType::SimdAdd            0      0.00%     55.82% # Class of committed instruction. (Count)
system.cpu.commitStats0.committedInstType::SimdAddAcc            0      0.00%     55.82% # Class of committed instruction. (Count)
system.cpu.commitStats0.committedInstType::SimdAlu            0      0.00%     55.82% # Class of committed instruction. (Count)
system.cpu.commitStats0.committedInstType::SimdCmp            0      0.00%     55.82% # Class of committed instruction. (Count)
system.cpu.commitStats0.committedInstType::SimdCvt            0      0.00%     55.82% # Class of committed instruction. (Count)
system.cpu.commitStats0.committedInstType::SimdMisc            0      0.00%     55.82% # Class of committed instruction. (Count)
system.cpu.commitStats0.committedInstType::SimdMult            0      0.00%     55.82% # Class of committed instruction. (Count)
system.cpu.commitStats0.committedInstType::SimdMultAcc            0      0.00%     55.82% # Class of committed instruction. (Count)
system.cpu.commitStats0.committedInstType::SimdMatMultAcc            0      0.00%     55.82% # Class of committed instruction. (Count)
system.cpu.commitStats0.committedInstType::SimdShift            0      0.00%     55.82% # Class of committed instruction. (Count)
system.cpu.commitStats0.committedInstType::SimdShiftAcc            0      0.00%     55.82% # Class of committed instruction. (Count)
system.cpu.commitStats0.committedInstType::SimdDiv            0      0.00%     55.82% # Class of committed instruction. (Count)
system.cpu.commitStats0.committedInstType::SimdSqrt            0      0.00%     55.82% # Class of committed instruction. (Count)
system.cpu.commitStats0.committedInstType::SimdFloatAdd            0      0.00%     55.82% # Class of committed instruction. (Count)
system.cpu.commitStats0.committedInstType::SimdFloatAlu            0      0.00%     55.82% # Class of committed instruction. (Count)
system.cpu.commitStats0.committedInstType::SimdFloatCmp            0      0.00%     55.82% # Class of committed instruction. (Count)
system.cpu.commitStats0.committedInstType::SimdFloatCvt            0      0.00%     55.82% # Class of committed instruction. (Count)
system.cpu.commitStats0.committedInstType::SimdFloatDiv            0      0.00%     55.82% # Class of committed instruction. (Count)
system.cpu.commitStats0.committedInstType::SimdFloatMisc            0      0.00%     55.82% # Class of committed instruction. (Count)
system.cpu.commitStats0.committedInstType::SimdFloatMult            0      0.00%     55.82% # Class of committed instruction. (Count)
system.cpu.commitStats0.committedInstType::SimdFloatMultAcc            0      0.00%     55.82% # Class of committed instruction. (Count)
system.cpu.commitStats0.committedInstType::SimdFloatMatMultAcc            0      0.00%     55.82% # Class of committed instruction. (Count)
system.cpu.commitStats0.committedInstType::SimdFloatSqrt            0      0.00%     55.82% # Class of committed instruction. (Count)
system.cpu.commitStats0.committedInstType::SimdReduceAdd            0      0.00%     55.82% # Class of committed instruction. (Count)
system.cpu.commitStats0.committedInstType::SimdReduceAlu            0      0.00%     55.82% # Class of committed instruction. (Count)
system.cpu.commitStats0.committedInstType::SimdReduceCmp            0      0.00%     55.82% # Class of committed instruction. (Count)
system.cpu.commitStats0.committedInstType::SimdFloatReduceAdd            0      0.00%     55.82% # Class of committed instruction. (Count)
system.cpu.commitStats0.committedInstType::SimdFloatReduceCmp            0      0.00%     55.82% # Class of committed instruction. (Count)
system.cpu.commitStats0.committedInstType::SimdAes            0      0.00%     55.82% # Class of committed instruction. (Count)
system.cpu.commitStats0.committedInstType::SimdAesMix            0      0.00%     55.82% # Class of committed instruction. (Count)
system.cpu.commitStats0.committedInstType::SimdSha1Hash            0      0.00%     55.82% # Class of committed instruction. (Count)
system.cpu.commitStats0.committedInstType::SimdSha1Hash2            0      0.00%     55.82% # Class of committed instruction. (Count)
system.cpu.commitStats0.committedInstType::SimdSha256Hash            0      0.00%     55.82% # Class of committed instruction. (Count)
system.cpu.commitStats0.committedInstType::SimdSha256Hash2            0      0.00%     55.82% # Class of committed instruction. (Count)
system.cpu.commitStats0.committedInstType::SimdShaSigma2            0      0.00%     55.82% # Class of committed instruction. (Count)
system.cpu.commitStats0.committedInstType::SimdShaSigma3            0      0.00%     55.82% # Class of committed instruction. (Count)
system.cpu.commitStats0.committedInstType::SimdPredAlu            0      0.00%     55.82% # Class of committed instruction. (Count)
system.cpu.commitStats0.committedInstType::Matrix            0      0.00%     55.82% # Class of committed instruction. (Count)
system.cpu.commitStats0.committedInstType::MatrixMov            0      0.00%     55.82% # Class of committed instruction. (Count)
system.cpu.commitStats0.committedInstType::MatrixOP            0      0.00%     55.82% # Class of committed instruction. (Count)
system.cpu.commitStats0.committedInstType::MemRead       564014      9.22%     65.04% # Class of committed instruction. (Count)
system.cpu.commitStats0.committedInstType::MemWrite       254717      4.16%     69.20% # Class of committed instruction. (Count)
system.cpu.commitStats0.committedInstType::FloatMemRead      1275412     20.85%     90.05% # Class of committed instruction. (Count)
system.cpu.commitStats0.committedInstType::FloatMemWrite       608368      9.95%    100.00% # Class of committed instruction. (Count)
system.cpu.commitStats0.committedInstType::IprAccess            0      0.00%    100.00% # Class of committed instruction. (Count)
system.cpu.commitStats0.committedInstType::InstPrefetch            0      0.00%    100.00% # Class of committed instruction. (Count)
system.cpu.commitStats0.committedInstType::VectorUnitStrideLoad            0      0.00%    100.00% # Class of committed instruction. (Count)
system.cpu.commitStats0.committedInstType::VectorUnitStrideStore            0      0.00%    100.00% # Class of committed instruction. (Count)
system.cpu.commitStats0.committedInstType::VectorUnitStrideMaskLoad            0      0.00%    100.00% # Class of committed instruction. (Count)
system.cpu.commitStats0.committedInstType::VectorUnitStrideMaskStore            0      0.00%    100.00% # Class of committed instruction. (Count)
system.cpu.commitStats0.committedInstType::VectorStridedLoad            0      0.00%    100.00% # Class of committed instruction. (Count)
system.cpu.commitStats0.committedInstType::VectorStridedStore            0      0.00%    100.00% # Class of committed instruction. (Count)
system.cpu.commitStats0.committedInstType::VectorIndexedLoad            0      0.00%    100.00% # Class of committed instruction. (Count)
system.cpu.commitStats0.committedInstType::VectorIndexedStore            0      0.00%    100.00% # Class of committed instruction. (Count)
system.cpu.commitStats0.committedInstType::VectorUnitStrideFaultOnlyFirstLoad            0      0.00%    100.00% # Class of committed instruction. (Count)
system.cpu.commitStats0.committedInstType::VectorWholeRegisterLoad            0      0.00%    100.00% # Class of committed instruction. (Count)
system.cpu.commitStats0.committedInstType::VectorWholeRegisterStore            0      0.00%    100.00% # Class of committed instruction. (Count)
system.cpu.commitStats0.committedInstType::VectorIntegerArith            0      0.00%    100.00% # Class of committed instruction. (Count)
system.cpu.commitStats0.committedInstType::VectorFloatArith            0      0.00%    100.00% # Class of committed instruction. (Count)
system.cpu.commitStats0.committedInstType::VectorFloatConvert            0      0.00%    100.00% # Class of committed instruction. (Count)
system.cpu.commitStats0.committedInstType::VectorIntegerReduce            0      0.00%    100.00% # Class of committed instruction. (Count)
system.cpu.commitStats0.committedInstType::VectorFloatReduce            0      0.00%    100.00% # Class of committed instruction. (Count)
system.cpu.commitStats0.committedInstType::VectorMisc            0      0.00%    100.00% # Class of committed instruction. (Count)
system.cpu.commitStats0.committedInstType::VectorIntegerExtension            0      0.00%    100.00% # Class of committed instruction. (Count)
system.cpu.commitStats0.committedInstType::VectorConfig            0      0.00%    100.00% # Class of committed instruction. (Count)
system.cpu.commitStats0.committedInstType::total      6116468                       # Class of committed instruction. (Count)
system.cpu.dcache.demandHits::cpu.data        2404462                       # number of demand (read+write) hits (Count)
system.cpu.dcache.demandHits::total           2404462                       # number of demand (read+write) hits (Count)
system.cpu.dcache.overallHits::cpu.data       2404462                       # number of overall hits (Count)
system.cpu.dcache.overallHits::total          2404462                       # number of overall hits (Count)
system.cpu.dcache.demandMisses::cpu.data        83195                       # number of demand (read+write) misses (Count)
system.cpu.dcache.demandMisses::total           83195                       # number of demand (read+write) misses (Count)
system.cpu.dcache.overallMisses::cpu.data        83195                       # number of overall misses (Count)
system.cpu.dcache.overallMisses::total          83195                       # number of overall misses (Count)
system.cpu.dcache.demandMissLatency::cpu.data   5494447000                       # number of demand (read+write) miss ticks (Tick)
system.cpu.dcache.demandMissLatency::total   5494447000                       # number of demand (read+write) miss ticks (Tick)
system.cpu.dcache.overallMissLatency::cpu.data   5494447000                       # number of overall miss ticks (Tick)
system.cpu.dcache.overallMissLatency::total   5494447000                       # number of overall miss ticks (Tick)
system.cpu.dcache.demandAccesses::cpu.data      2487657                       # number of demand (read+write) accesses (Count)
system.cpu.dcache.demandAccesses::total       2487657                       # number of demand (read+write) accesses (Count)
system.cpu.dcache.overallAccesses::cpu.data      2487657                       # number of overall (read+write) accesses (Count)
system.cpu.dcache.overallAccesses::total      2487657                       # number of overall (read+write) accesses (Count)
system.cpu.dcache.demandMissRate::cpu.data     0.033443                       # miss rate for demand accesses (Ratio)
system.cpu.dcache.demandMissRate::total      0.033443                       # miss rate for demand accesses (Ratio)
system.cpu.dcache.overallMissRate::cpu.data     0.033443                       # miss rate for overall accesses (Ratio)
system.cpu.dcache.overallMissRate::total     0.033443                       # miss rate for overall accesses (Ratio)
system.cpu.dcache.demandAvgMissLatency::cpu.data 66042.995372                       # average overall miss latency in ticks ((Tick/Count))
system.cpu.dcache.demandAvgMissLatency::total 66042.995372                       # average overall miss latency in ticks ((Tick/Count))
system.cpu.dcache.overallAvgMissLatency::cpu.data 66042.995372                       # average overall miss latency ((Tick/Count))
system.cpu.dcache.overallAvgMissLatency::total 66042.995372                       # average overall miss latency ((Tick/Count))
system.cpu.dcache.blockedCycles::no_mshrs            0                       # number of cycles access was blocked (Cycle)
system.cpu.dcache.blockedCycles::no_targets            0                       # number of cycles access was blocked (Cycle)
system.cpu.dcache.blockedCauses::no_mshrs            0                       # number of times access was blocked (Count)
system.cpu.dcache.blockedCauses::no_targets            0                       # number of times access was blocked (Count)
system.cpu.dcache.avgBlocked::no_mshrs            nan                       # average number of cycles each access was blocked ((Cycle/Count))
system.cpu.dcache.avgBlocked::no_targets          nan                       # average number of cycles each access was blocked ((Cycle/Count))
system.cpu.dcache.writebacks::writebacks         8923                       # number of writebacks (Count)
system.cpu.dcache.writebacks::total              8923                       # number of writebacks (Count)
system.cpu.dcache.demandMshrHits::cpu.data        12267                       # number of demand (read+write) MSHR hits (Count)
system.cpu.dcache.demandMshrHits::total         12267                       # number of demand (read+write) MSHR hits (Count)
system.cpu.dcache.overallMshrHits::cpu.data        12267                       # number of overall MSHR hits (Count)
system.cpu.dcache.overallMshrHits::total        12267                       # number of overall MSHR hits (Count)
system.cpu.dcache.demandMshrMisses::cpu.data        70928                       # number of demand (read+write) MSHR misses (Count)
system.cpu.dcache.demandMshrMisses::total        70928                       # number of demand (read+write) MSHR misses (Count)
system.cpu.dcache.overallMshrMisses::cpu.data        70928                       # number of overall MSHR misses (Count)
system.cpu.dcache.overallMshrMisses::total        70928                       # number of overall MSHR misses (Count)
system.cpu.dcache.demandMshrMissLatency::cpu.data   4581874000                       # number of demand (read+write) MSHR miss ticks (Tick)
system.cpu.dcache.demandMshrMissLatency::total   4581874000                       # number of demand (read+write) MSHR miss ticks (Tick)
system.cpu.dcache.overallMshrMissLatency::cpu.data   4581874000                       # number of overall MSHR miss ticks (Tick)
system.cpu.dcache.overallMshrMissLatency::total   4581874000                       # number of overall MSHR miss ticks (Tick)
system.cpu.dcache.demandMshrMissRate::cpu.data     0.028512                       # mshr miss ratio for demand accesses (Ratio)
system.cpu.dcache.demandMshrMissRate::total     0.028512                       # mshr miss ratio for demand accesses (Ratio)
system.cpu.dcache.overallMshrMissRate::cpu.data     0.028512                       # mshr miss ratio for overall accesses (Ratio)
system.cpu.dcache.overallMshrMissRate::total     0.028512                       # mshr miss ratio for overall accesses (Ratio)
system.cpu.dcache.demandAvgMshrMissLatency::cpu.data 64598.945409                       # average overall mshr miss latency ((Tick/Count))
system.cpu.dcache.demandAvgMshrMissLatency::total 64598.945409                       # average overall mshr miss latency ((Tick/Count))
system.cpu.dcache.overallAvgMshrMissLatency::cpu.data 64598.945409                       # average overall mshr miss latency ((Tick/Count))
system.cpu.dcache.overallAvgMshrMissLatency::total 64598.945409                       # average overall mshr miss latency ((Tick/Count))
system.cpu.dcache.replacements                  70898                       # number of replacements (Count)
system.cpu.dcache.LoadLockedReq.hits::cpu.data          176                       # number of LoadLockedReq hits (Count)
system.cpu.dcache.LoadLockedReq.hits::total          176                       # number of LoadLockedReq hits (Count)
system.cpu.dcache.LoadLockedReq.misses::cpu.data            2                       # number of LoadLockedReq misses (Count)
system.cpu.dcache.LoadLockedReq.misses::total            2                       # number of LoadLockedReq misses (Count)
system.cpu.dcache.LoadLockedReq.missLatency::cpu.data       152000                       # number of LoadLockedReq miss ticks (Tick)
system.cpu.dcache.LoadLockedReq.missLatency::total       152000                       # number of LoadLockedReq miss ticks (Tick)
system.cpu.dcache.LoadLockedReq.accesses::cpu.data          178                       # number of LoadLockedReq accesses(hits+misses) (Count)
system.cpu.dcache.LoadLockedReq.accesses::total          178                       # number of LoadLockedReq accesses(hits+misses) (Count)
system.cpu.dcache.LoadLockedReq.missRate::cpu.data     0.011236                       # miss rate for LoadLockedReq accesses (Ratio)
system.cpu.dcache.LoadLockedReq.missRate::total     0.011236                       # miss rate for LoadLockedReq accesses (Ratio)
system.cpu.dcache.LoadLockedReq.avgMissLatency::cpu.data        76000                       # average LoadLockedReq miss latency ((Tick/Count))
system.cpu.dcache.LoadLockedReq.avgMissLatency::total        76000                       # average LoadLockedReq miss latency ((Tick/Count))
system.cpu.dcache.LoadLockedReq.mshrMisses::cpu.data            2                       # number of LoadLockedReq MSHR misses (Count)
system.cpu.dcache.LoadLockedReq.mshrMisses::total            2                       # number of LoadLockedReq MSHR misses (Count)
system.cpu.dcache.LoadLockedReq.mshrMissLatency::cpu.data       147000                       # number of LoadLockedReq MSHR miss ticks (Tick)
system.cpu.dcache.LoadLockedReq.mshrMissLatency::total       147000                       # number of LoadLockedReq MSHR miss ticks (Tick)
system.cpu.dcache.LoadLockedReq.mshrMissRate::cpu.data     0.011236                       # mshr miss rate for LoadLockedReq accesses (Ratio)
system.cpu.dcache.LoadLockedReq.mshrMissRate::total     0.011236                       # mshr miss rate for LoadLockedReq accesses (Ratio)
system.cpu.dcache.LoadLockedReq.avgMshrMissLatency::cpu.data        73500                       # average LoadLockedReq mshr miss latency ((Tick/Count))
system.cpu.dcache.LoadLockedReq.avgMshrMissLatency::total        73500                       # average LoadLockedReq mshr miss latency ((Tick/Count))
system.cpu.dcache.ReadReq.hits::cpu.data      1550370                       # number of ReadReq hits (Count)
system.cpu.dcache.ReadReq.hits::total         1550370                       # number of ReadReq hits (Count)
system.cpu.dcache.ReadReq.misses::cpu.data        74386                       # number of ReadReq misses (Count)
system.cpu.dcache.ReadReq.misses::total         74386                       # number of ReadReq misses (Count)
system.cpu.dcache.ReadReq.missLatency::cpu.data   5121464000                       # number of ReadReq miss ticks (Tick)
system.cpu.dcache.ReadReq.missLatency::total   5121464000                       # number of ReadReq miss ticks (Tick)
system.cpu.dcache.ReadReq.accesses::cpu.data      1624756                       # number of ReadReq accesses(hits+misses) (Count)
system.cpu.dcache.ReadReq.accesses::total      1624756                       # number of ReadReq accesses(hits+misses) (Count)
system.cpu.dcache.ReadReq.missRate::cpu.data     0.045783                       # miss rate for ReadReq accesses (Ratio)
system.cpu.dcache.ReadReq.missRate::total     0.045783                       # miss rate for ReadReq accesses (Ratio)
system.cpu.dcache.ReadReq.avgMissLatency::cpu.data 68849.837335                       # average ReadReq miss latency ((Tick/Count))
system.cpu.dcache.ReadReq.avgMissLatency::total 68849.837335                       # average ReadReq miss latency ((Tick/Count))
system.cpu.dcache.ReadReq.mshrHits::cpu.data         9337                       # number of ReadReq MSHR hits (Count)
system.cpu.dcache.ReadReq.mshrHits::total         9337                       # number of ReadReq MSHR hits (Count)
system.cpu.dcache.ReadReq.mshrMisses::cpu.data        65049                       # number of ReadReq MSHR misses (Count)
system.cpu.dcache.ReadReq.mshrMisses::total        65049                       # number of ReadReq MSHR misses (Count)
system.cpu.dcache.ReadReq.mshrMissLatency::cpu.data   4344893000                       # number of ReadReq MSHR miss ticks (Tick)
system.cpu.dcache.ReadReq.mshrMissLatency::total   4344893000                       # number of ReadReq MSHR miss ticks (Tick)
system.cpu.dcache.ReadReq.mshrMissRate::cpu.data     0.040036                       # mshr miss rate for ReadReq accesses (Ratio)
system.cpu.dcache.ReadReq.mshrMissRate::total     0.040036                       # mshr miss rate for ReadReq accesses (Ratio)
system.cpu.dcache.ReadReq.avgMshrMissLatency::cpu.data 66794.155175                       # average ReadReq mshr miss latency ((Tick/Count))
system.cpu.dcache.ReadReq.avgMshrMissLatency::total 66794.155175                       # average ReadReq mshr miss latency ((Tick/Count))
system.cpu.dcache.StoreCondReq.hits::cpu.data          178                       # number of StoreCondReq hits (Count)
system.cpu.dcache.StoreCondReq.hits::total          178                       # number of StoreCondReq hits (Count)
system.cpu.dcache.StoreCondReq.accesses::cpu.data          178                       # number of StoreCondReq accesses(hits+misses) (Count)
system.cpu.dcache.StoreCondReq.accesses::total          178                       # number of StoreCondReq accesses(hits+misses) (Count)
system.cpu.dcache.SwapReq.hits::cpu.data          180                       # number of SwapReq hits (Count)
system.cpu.dcache.SwapReq.hits::total             180                       # number of SwapReq hits (Count)
system.cpu.dcache.SwapReq.accesses::cpu.data          180                       # number of SwapReq accesses(hits+misses) (Count)
system.cpu.dcache.SwapReq.accesses::total          180                       # number of SwapReq accesses(hits+misses) (Count)
system.cpu.dcache.WriteReq.hits::cpu.data       854092                       # number of WriteReq hits (Count)
system.cpu.dcache.WriteReq.hits::total         854092                       # number of WriteReq hits (Count)
system.cpu.dcache.WriteReq.misses::cpu.data         8809                       # number of WriteReq misses (Count)
system.cpu.dcache.WriteReq.misses::total         8809                       # number of WriteReq misses (Count)
system.cpu.dcache.WriteReq.missLatency::cpu.data    372983000                       # number of WriteReq miss ticks (Tick)
system.cpu.dcache.WriteReq.missLatency::total    372983000                       # number of WriteReq miss ticks (Tick)
system.cpu.dcache.WriteReq.accesses::cpu.data       862901                       # number of WriteReq accesses(hits+misses) (Count)
system.cpu.dcache.WriteReq.accesses::total       862901                       # number of WriteReq accesses(hits+misses) (Count)
system.cpu.dcache.WriteReq.missRate::cpu.data     0.010209                       # miss rate for WriteReq accesses (Ratio)
system.cpu.dcache.WriteReq.missRate::total     0.010209                       # miss rate for WriteReq accesses (Ratio)
system.cpu.dcache.WriteReq.avgMissLatency::cpu.data 42341.128391                       # average WriteReq miss latency ((Tick/Count))
system.cpu.dcache.WriteReq.avgMissLatency::total 42341.128391                       # average WriteReq miss latency ((Tick/Count))
system.cpu.dcache.WriteReq.mshrHits::cpu.data         2930                       # number of WriteReq MSHR hits (Count)
system.cpu.dcache.WriteReq.mshrHits::total         2930                       # number of WriteReq MSHR hits (Count)
system.cpu.dcache.WriteReq.mshrMisses::cpu.data         5879                       # number of WriteReq MSHR misses (Count)
system.cpu.dcache.WriteReq.mshrMisses::total         5879                       # number of WriteReq MSHR misses (Count)
system.cpu.dcache.WriteReq.mshrMissLatency::cpu.data    236981000                       # number of WriteReq MSHR miss ticks (Tick)
system.cpu.dcache.WriteReq.mshrMissLatency::total    236981000                       # number of WriteReq MSHR miss ticks (Tick)
system.cpu.dcache.WriteReq.mshrMissRate::cpu.data     0.006813                       # mshr miss rate for WriteReq accesses (Ratio)
system.cpu.dcache.WriteReq.mshrMissRate::total     0.006813                       # mshr miss rate for WriteReq accesses (Ratio)
system.cpu.dcache.WriteReq.avgMshrMissLatency::cpu.data 40309.746556                       # average WriteReq mshr miss latency ((Tick/Count))
system.cpu.dcache.WriteReq.avgMshrMissLatency::total 40309.746556                       # average WriteReq mshr miss latency ((Tick/Count))
system.cpu.dcache.power_state.pwrStateResidencyTicks::UNDEFINED  23349848000                       # Cumulative time (in ticks) in various power states (Tick)
system.cpu.dcache.tags.tagsInUse            31.995783                       # Average ticks per tags in use ((Tick/Count))
system.cpu.dcache.tags.totalRefs              2475926                       # Total number of references to valid blocks. (Count)
system.cpu.dcache.tags.sampledRefs              70930                       # Sample count of references to valid blocks. (Count)
system.cpu.dcache.tags.avgRefs              34.906612                       # Average number of references to valid blocks. ((Count/Count))
system.cpu.dcache.tags.warmupTick              183500                       # The tick when the warmup percentage was hit. (Tick)
system.cpu.dcache.tags.occupancies::cpu.data    31.995783                       # Average occupied blocks per tick, per requestor ((Count/Tick))
system.cpu.dcache.tags.avgOccs::cpu.data     0.999868                       # Average percentage of cache occupancy ((Ratio/Tick))
system.cpu.dcache.tags.avgOccs::total        0.999868                       # Average percentage of cache occupancy ((Ratio/Tick))
system.cpu.dcache.tags.occupanciesTaskId::1024           32                       # Occupied blocks per task id (Count)
system.cpu.dcache.tags.ageTaskId_1024::0           28                       # Occupied blocks per task id, per block age (Count)
system.cpu.dcache.tags.ageTaskId_1024::1            3                       # Occupied blocks per task id, per block age (Count)
system.cpu.dcache.tags.ageTaskId_1024::2            1                       # Occupied blocks per task id, per block age (Count)
system.cpu.dcache.tags.ratioOccsTaskId::1024            1                       # Ratio of occupied blocks and all blocks, per task id (Ratio)
system.cpu.dcache.tags.tagAccesses            5047316                       # Number of tag accesses (Count)
system.cpu.dcache.tags.dataAccesses           5047316                       # Number of data accesses (Count)
system.cpu.dcache.tags.power_state.pwrStateResidencyTicks::UNDEFINED  23349848000                       # Cumulative time (in ticks) in various power states (Tick)
system.cpu.dtb_walker_cache.blockedCycles::no_mshrs            0                       # number of cycles access was blocked (Cycle)
system.cpu.dtb_walker_cache.blockedCycles::no_targets            0                       # number of cycles access was blocked (Cycle)
system.cpu.dtb_walker_cache.blockedCauses::no_mshrs            0                       # number of times access was blocked (Count)
system.cpu.dtb_walker_cache.blockedCauses::no_targets            0                       # number of times access was blocked (Count)
system.cpu.dtb_walker_cache.avgBlocked::no_mshrs          nan                       # average number of cycles each access was blocked ((Cycle/Count))
system.cpu.dtb_walker_cache.avgBlocked::no_targets          nan                       # average number of cycles each access was blocked ((Cycle/Count))
system.cpu.dtb_walker_cache.replacements            0                       # number of replacements (Count)
system.cpu.dtb_walker_cache.power_state.pwrStateResidencyTicks::UNDEFINED  23349848000                       # Cumulative time (in ticks) in various power states (Tick)
system.cpu.dtb_walker_cache.tags.tagsInUse            0                       # Average ticks per tags in use ((Tick/Count))
system.cpu.dtb_walker_cache.tags.totalRefs            0                       # Total number of references to valid blocks. (Count)
system.cpu.dtb_walker_cache.tags.sampledRefs            0                       # Sample count of references to valid blocks. (Count)
system.cpu.dtb_walker_cache.tags.avgRefs          nan                       # Average number of references to valid blocks. ((Count/Count))
system.cpu.dtb_walker_cache.tags.warmupTick            0                       # The tick when the warmup percentage was hit. (Tick)
system.cpu.dtb_walker_cache.tags.tagAccesses            0                       # Number of tag accesses (Count)
system.cpu.dtb_walker_cache.tags.dataAccesses            0                       # Number of data accesses (Count)
system.cpu.dtb_walker_cache.tags.power_state.pwrStateResidencyTicks::UNDEFINED  23349848000                       # Cumulative time (in ticks) in various power states (Tick)
system.cpu.executeStats0.numInsts                   0                       # Number of executed instructions (Count)
system.cpu.executeStats0.numNop                     0                       # Number of nop insts executed (Count)
system.cpu.executeStats0.numBranches                0                       # Number of branches executed (Count)
system.cpu.executeStats0.numLoadInsts               0                       # Number of load instructions executed (Count)
system.cpu.executeStats0.numStoreInsts              0                       # Number of stores executed (Count)
system.cpu.executeStats0.instRate                   0                       # Inst execution rate ((Count/Cycle))
system.cpu.executeStats0.numFpRegWrites             0                       # Number of times the floating registers were written (Count)
system.cpu.executeStats0.numMemRefs                 0                       # Number of memory refs (Count)
system.cpu.executeStats0.numVecAluAccesses            0                       # Number of vector alu accesses (Count)
system.cpu.executeStats0.numDiscardedOps        51716                       # Number of ops (including micro ops) which were discarded before commit (Count)
system.cpu.fetch2.intInstructions             2088753                       # Number of integer instructions successfully decoded (Count)
system.cpu.fetch2.fpInstructions              1416940                       # Number of floating point instructions successfully decoded (Count)
system.cpu.fetch2.vecInstructions                   0                       # Number of SIMD instructions successfully decoded (Count)
system.cpu.fetch2.loadInstructions            1879850                       # Number of memory load instructions successfully decoded (Count)
system.cpu.fetch2.storeInstructions            880469                       # Number of memory store instructions successfully decoded (Count)
system.cpu.fetch2.amoInstructions                   0                       # Number of memory atomic instructions successfully decoded (Count)
system.cpu.fetchStats0.numInsts                     0                       # Number of instructions fetched (thread level) (Count)
system.cpu.fetchStats0.numOps                       0                       # Number of ops (including micro ops) fetched (thread level) (Count)
system.cpu.fetchStats0.fetchRate                    0                       # Number of inst fetches per cycle ((Count/Cycle))
system.cpu.fetchStats0.branchRate                   0                       # Number of branch fetches per cycle (Ratio)
system.cpu.fetchStats0.numFetchSuspends             0                       # Number of times Execute suspended instruction fetching (Count)
system.cpu.icache.demandHits::cpu.inst         893971                       # number of demand (read+write) hits (Count)
system.cpu.icache.demandHits::total            893971                       # number of demand (read+write) hits (Count)
system.cpu.icache.overallHits::cpu.inst        893971                       # number of overall hits (Count)
system.cpu.icache.overallHits::total           893971                       # number of overall hits (Count)
system.cpu.icache.demandMisses::cpu.inst       241104                       # number of demand (read+write) misses (Count)
system.cpu.icache.demandMisses::total          241104                       # number of demand (read+write) misses (Count)
system.cpu.icache.overallMisses::cpu.inst       241104                       # number of overall misses (Count)
system.cpu.icache.overallMisses::total         241104                       # number of overall misses (Count)
system.cpu.icache.demandMissLatency::cpu.inst  12853599000                       # number of demand (read+write) miss ticks (Tick)
system.cpu.icache.demandMissLatency::total  12853599000                       # number of demand (read+write) miss ticks (Tick)
system.cpu.icache.overallMissLatency::cpu.inst  12853599000                       # number of overall miss ticks (Tick)
system.cpu.icache.overallMissLatency::total  12853599000                       # number of overall miss ticks (Tick)
system.cpu.icache.demandAccesses::cpu.inst      1135075                       # number of demand (read+write) accesses (Count)
system.cpu.icache.demandAccesses::total       1135075                       # number of demand (read+write) accesses (Count)
system.cpu.icache.overallAccesses::cpu.inst      1135075                       # number of overall (read+write) accesses (Count)
system.cpu.icache.overallAccesses::total      1135075                       # number of overall (read+write) accesses (Count)
system.cpu.icache.demandMissRate::cpu.inst     0.212412                       # miss rate for demand accesses (Ratio)
system.cpu.icache.demandMissRate::total      0.212412                       # miss rate for demand accesses (Ratio)
system.cpu.icache.overallMissRate::cpu.inst     0.212412                       # miss rate for overall accesses (Ratio)
system.cpu.icache.overallMissRate::total     0.212412                       # miss rate for overall accesses (Ratio)
system.cpu.icache.demandAvgMissLatency::cpu.inst 53311.429922                       # average overall miss latency in ticks ((Tick/Count))
system.cpu.icache.demandAvgMissLatency::total 53311.429922                       # average overall miss latency in ticks ((Tick/Count))
system.cpu.icache.overallAvgMissLatency::cpu.inst 53311.429922                       # average overall miss latency ((Tick/Count))
system.cpu.icache.overallAvgMissLatency::total 53311.429922                       # average overall miss latency ((Tick/Count))
system.cpu.icache.blockedCycles::no_mshrs            0                       # number of cycles access was blocked (Cycle)
system.cpu.icache.blockedCycles::no_targets            0                       # number of cycles access was blocked (Cycle)
system.cpu.icache.blockedCauses::no_mshrs            0                       # number of times access was blocked (Count)
system.cpu.icache.blockedCauses::no_targets            0                       # number of times access was blocked (Count)
system.cpu.icache.avgBlocked::no_mshrs            nan                       # average number of cycles each access was blocked ((Cycle/Count))
system.cpu.icache.avgBlocked::no_targets          nan                       # average number of cycles each access was blocked ((Cycle/Count))
system.cpu.icache.writebacks::writebacks       241071                       # number of writebacks (Count)
system.cpu.icache.writebacks::total            241071                       # number of writebacks (Count)
system.cpu.icache.demandMshrMisses::cpu.inst       241104                       # number of demand (read+write) MSHR misses (Count)
system.cpu.icache.demandMshrMisses::total       241104                       # number of demand (read+write) MSHR misses (Count)
system.cpu.icache.overallMshrMisses::cpu.inst       241104                       # number of overall MSHR misses (Count)
system.cpu.icache.overallMshrMisses::total       241104                       # number of overall MSHR misses (Count)
system.cpu.icache.demandMshrMissLatency::cpu.inst  12301062500                       # number of demand (read+write) MSHR miss ticks (Tick)
system.cpu.icache.demandMshrMissLatency::total  12301062500                       # number of demand (read+write) MSHR miss ticks (Tick)
system.cpu.icache.overallMshrMissLatency::cpu.inst  12301062500                       # number of overall MSHR miss ticks (Tick)
system.cpu.icache.overallMshrMissLatency::total  12301062500                       # number of overall MSHR miss ticks (Tick)
system.cpu.icache.demandMshrMissRate::cpu.inst     0.212412                       # mshr miss ratio for demand accesses (Ratio)
system.cpu.icache.demandMshrMissRate::total     0.212412                       # mshr miss ratio for demand accesses (Ratio)
system.cpu.icache.overallMshrMissRate::cpu.inst     0.212412                       # mshr miss ratio for overall accesses (Ratio)
system.cpu.icache.overallMshrMissRate::total     0.212412                       # mshr miss ratio for overall accesses (Ratio)
system.cpu.icache.demandAvgMshrMissLatency::cpu.inst 51019.736296                       # average overall mshr miss latency ((Tick/Count))
system.cpu.icache.demandAvgMshrMissLatency::total 51019.736296                       # average overall mshr miss latency ((Tick/Count))
system.cpu.icache.overallAvgMshrMissLatency::cpu.inst 51019.736296                       # average overall mshr miss latency ((Tick/Count))
system.cpu.icache.overallAvgMshrMissLatency::total 51019.736296                       # average overall mshr miss latency ((Tick/Count))
system.cpu.icache.replacements                 241071                       # number of replacements (Count)
system.cpu.icache.ReadReq.hits::cpu.inst       893971                       # number of ReadReq hits (Count)
system.cpu.icache.ReadReq.hits::total          893971                       # number of ReadReq hits (Count)
system.cpu.icache.ReadReq.misses::cpu.inst       241104                       # number of ReadReq misses (Count)
system.cpu.icache.ReadReq.misses::total        241104                       # number of ReadReq misses (Count)
system.cpu.icache.ReadReq.missLatency::cpu.inst  12853599000                       # number of ReadReq miss ticks (Tick)
system.cpu.icache.ReadReq.missLatency::total  12853599000                       # number of ReadReq miss ticks (Tick)
system.cpu.icache.ReadReq.accesses::cpu.inst      1135075                       # number of ReadReq accesses(hits+misses) (Count)
system.cpu.icache.ReadReq.accesses::total      1135075                       # number of ReadReq accesses(hits+misses) (Count)
system.cpu.icache.ReadReq.missRate::cpu.inst     0.212412                       # miss rate for ReadReq accesses (Ratio)
system.cpu.icache.ReadReq.missRate::total     0.212412                       # miss rate for ReadReq accesses (Ratio)
system.cpu.icache.ReadReq.avgMissLatency::cpu.inst 53311.429922                       # average ReadReq miss latency ((Tick/Count))
system.cpu.icache.ReadReq.avgMissLatency::total 53311.429922                       # average ReadReq miss latency ((Tick/Count))
system.cpu.icache.ReadReq.mshrMisses::cpu.inst       241104                       # number of ReadReq MSHR misses (Count)
system.cpu.icache.ReadReq.mshrMisses::total       241104                       # number of ReadReq MSHR misses (Count)
system.cpu.icache.ReadReq.mshrMissLatency::cpu.inst  12301062500                       # number of ReadReq MSHR miss ticks (Tick)
system.cpu.icache.ReadReq.mshrMissLatency::total  12301062500                       # number of ReadReq MSHR miss ticks (Tick)
system.cpu.icache.ReadReq.mshrMissRate::cpu.inst     0.212412                       # mshr miss rate for ReadReq accesses (Ratio)
system.cpu.icache.ReadReq.mshrMissRate::total     0.212412                       # mshr miss rate for ReadReq accesses (Ratio)
system.cpu.icache.ReadReq.avgMshrMissLatency::cpu.inst 51019.736296                       # average ReadReq mshr miss latency ((Tick/Count))
system.cpu.icache.ReadReq.avgMshrMissLatency::total 51019.736296                       # average ReadReq mshr miss latency ((Tick/Count))
system.cpu.icache.power_state.pwrStateResidencyTicks::UNDEFINED  23349848000                       # Cumulative time (in ticks) in various power states (Tick)
system.cpu.icache.tags.tagsInUse            31.996883                       # Average ticks per tags in use ((Tick/Count))
system.cpu.icache.tags.totalRefs              1135074                       # Total number of references to valid blocks. (Count)
system.cpu.icache.tags.sampledRefs             241103                       # Sample count of references to valid blocks. (Count)
system.cpu.icache.tags.avgRefs               4.707839                       # Average number of references to valid blocks. ((Count/Count))
system.cpu.icache.tags.warmupTick               87500                       # The tick when the warmup percentage was hit. (Tick)
system.cpu.icache.tags.occupancies::cpu.inst    31.996883                       # Average occupied blocks per tick, per requestor ((Count/Tick))
system.cpu.icache.tags.avgOccs::cpu.inst     0.999903                       # Average percentage of cache occupancy ((Ratio/Tick))
system.cpu.icache.tags.avgOccs::total        0.999903                       # Average percentage of cache occupancy ((Ratio/Tick))
system.cpu.icache.tags.occupanciesTaskId::1024           32                       # Occupied blocks per task id (Count)
system.cpu.icache.tags.ageTaskId_1024::0           32                       # Occupied blocks per task id, per block age (Count)
system.cpu.icache.tags.ratioOccsTaskId::1024            1                       # Ratio of occupied blocks and all blocks, per task id (Ratio)
system.cpu.icache.tags.tagAccesses            2511253                       # Number of tag accesses (Count)
system.cpu.icache.tags.dataAccesses           2511253                       # Number of data accesses (Count)
system.cpu.icache.tags.power_state.pwrStateResidencyTicks::UNDEFINED  23349848000                       # Cumulative time (in ticks) in various power states (Tick)
system.cpu.itb_walker_cache.blockedCycles::no_mshrs            0                       # number of cycles access was blocked (Cycle)
system.cpu.itb_walker_cache.blockedCycles::no_targets            0                       # number of cycles access was blocked (Cycle)
system.cpu.itb_walker_cache.blockedCauses::no_mshrs            0                       # number of times access was blocked (Count)
system.cpu.itb_walker_cache.blockedCauses::no_targets            0                       # number of times access was blocked (Count)
system.cpu.itb_walker_cache.avgBlocked::no_mshrs          nan                       # average number of cycles each access was blocked ((Cycle/Count))
system.cpu.itb_walker_cache.avgBlocked::no_targets          nan                       # average number of cycles each access was blocked ((Cycle/Count))
system.cpu.itb_walker_cache.replacements            0                       # number of replacements (Count)
system.cpu.itb_walker_cache.power_state.pwrStateResidencyTicks::UNDEFINED  23349848000                       # Cumulative time (in ticks) in various power states (Tick)
system.cpu.itb_walker_cache.tags.tagsInUse            0                       # Average ticks per tags in use ((Tick/Count))
system.cpu.itb_walker_cache.tags.totalRefs            0                       # Total number of references to valid blocks. (Count)
system.cpu.itb_walker_cache.tags.sampledRefs            0                       # Sample count of references to valid blocks. (Count)
system.cpu.itb_walker_cache.tags.avgRefs          nan                       # Average number of references to valid blocks. ((Count/Count))
system.cpu.itb_walker_cache.tags.warmupTick            0                       # The tick when the warmup percentage was hit. (Tick)
system.cpu.itb_walker_cache.tags.tagAccesses            0                       # Number of tag accesses (Count)
system.cpu.itb_walker_cache.tags.dataAccesses            0                       # Number of data accesses (Count)
system.cpu.itb_walker_cache.tags.power_state.pwrStateResidencyTicks::UNDEFINED  23349848000                       # Cumulative time (in ticks) in various power states (Tick)
system.cpu.mmu.dtb.readHits                         0                       # read hits (Count)
system.cpu.mmu.dtb.readMisses                       0                       # read misses (Count)
system.cpu.mmu.dtb.readAccesses                     0                       # read accesses (Count)
system.cpu.mmu.dtb.writeHits                        0                       # write hits (Count)
system.cpu.mmu.dtb.writeMisses                      0                       # write misses (Count)
system.cpu.mmu.dtb.writeAccesses                    0                       # write accesses (Count)
system.cpu.mmu.dtb.hits                             0                       # Total TLB (read and write) hits (Count)
system.cpu.mmu.dtb.misses                           0                       # Total TLB (read and write) misses (Count)
system.cpu.mmu.dtb.accesses                         0                       # Total TLB (read and write) accesses (Count)
system.cpu.mmu.dtb.walker.power_state.pwrStateResidencyTicks::UNDEFINED  23349848000                       # Cumulative time (in ticks) in various power states (Tick)
system.cpu.mmu.itb.readHits                         0                       # read hits (Count)
system.cpu.mmu.itb.readMisses                       0                       # read misses (Count)
system.cpu.mmu.itb.readAccesses                     0                       # read accesses (Count)
system.cpu.mmu.itb.writeHits                        0                       # write hits (Count)
system.cpu.mmu.itb.writeMisses                      0                       # write misses (Count)
system.cpu.mmu.itb.writeAccesses                    0                       # write accesses (Count)
system.cpu.mmu.itb.hits                             0                       # Total TLB (read and write) hits (Count)
system.cpu.mmu.itb.misses                           0                       # Total TLB (read and write) misses (Count)
system.cpu.mmu.itb.accesses                         0                       # Total TLB (read and write) accesses (Count)
system.cpu.mmu.itb.walker.power_state.pwrStateResidencyTicks::UNDEFINED  23349848000                       # Cumulative time (in ticks) in various power states (Tick)
system.cpu.power_state.pwrStateResidencyTicks::ON  23349848000                       # Cumulative time (in ticks) in various power states (Tick)
system.cpu.thread_0.numInsts                  6116290                       # Number of Instructions committed (Count)
system.cpu.thread_0.numOps                    6116468                       # Number of Ops committed (Count)
system.cpu.thread_0.numMemRefs                      0                       # Number of Memory References (Count)
system.cpu.workload.numSyscalls                    21                       # Number of system calls (Count)
system.cpu_clk_domain.clock                       500                       # Clock period in ticks (Tick)
system.cpu_voltage_domain.voltage                   1                       # Voltage in Volts (Volt)
system.l2.demandHits::cpu.inst                 100442                       # number of demand (read+write) hits (Count)
system.l2.demandHits::cpu.data                  11568                       # number of demand (read+write) hits (Count)
system.l2.demandHits::total                    112010                       # number of demand (read+write) hits (Count)
system.l2.overallHits::cpu.inst                100442                       # number of overall hits (Count)
system.l2.overallHits::cpu.data                 11568                       # number of overall hits (Count)
system.l2.overallHits::total                   112010                       # number of overall hits (Count)
system.l2.demandMisses::cpu.inst               140662                       # number of demand (read+write) misses (Count)
system.l2.demandMisses::cpu.data                59362                       # number of demand (read+write) misses (Count)
system.l2.demandMisses::total                  200024                       # number of demand (read+write) misses (Count)
system.l2.overallMisses::cpu.inst              140662                       # number of overall misses (Count)
system.l2.overallMisses::cpu.data               59362                       # number of overall misses (Count)
system.l2.overallMisses::total                 200024                       # number of overall misses (Count)
system.l2.demandMissLatency::cpu.inst     10594477500                       # number of demand (read+write) miss ticks (Tick)
system.l2.demandMissLatency::cpu.data      4279220000                       # number of demand (read+write) miss ticks (Tick)
system.l2.demandMissLatency::total        14873697500                       # number of demand (read+write) miss ticks (Tick)
system.l2.overallMissLatency::cpu.inst    10594477500                       # number of overall miss ticks (Tick)
system.l2.overallMissLatency::cpu.data     4279220000                       # number of overall miss ticks (Tick)
system.l2.overallMissLatency::total       14873697500                       # number of overall miss ticks (Tick)
system.l2.demandAccesses::cpu.inst             241104                       # number of demand (read+write) accesses (Count)
system.l2.demandAccesses::cpu.data              70930                       # number of demand (read+write) accesses (Count)
system.l2.demandAccesses::total                312034                       # number of demand (read+write) accesses (Count)
system.l2.overallAccesses::cpu.inst            241104                       # number of overall (read+write) accesses (Count)
system.l2.overallAccesses::cpu.data             70930                       # number of overall (read+write) accesses (Count)
system.l2.overallAccesses::total               312034                       # number of overall (read+write) accesses (Count)
system.l2.demandMissRate::cpu.inst           0.583408                       # miss rate for demand accesses (Ratio)
system.l2.demandMissRate::cpu.data           0.836910                       # miss rate for demand accesses (Ratio)
system.l2.demandMissRate::total              0.641033                       # miss rate for demand accesses (Ratio)
system.l2.overallMissRate::cpu.inst          0.583408                       # miss rate for overall accesses (Ratio)
system.l2.overallMissRate::cpu.data          0.836910                       # miss rate for overall accesses (Ratio)
system.l2.overallMissRate::total             0.641033                       # miss rate for overall accesses (Ratio)
system.l2.demandAvgMissLatency::cpu.inst 75318.689483                       # average overall miss latency in ticks ((Tick/Count))
system.l2.demandAvgMissLatency::cpu.data 72086.856912                       # average overall miss latency in ticks ((Tick/Count))
system.l2.demandAvgMissLatency::total    74359.564352                       # average overall miss latency in ticks ((Tick/Count))
system.l2.overallAvgMissLatency::cpu.inst 75318.689483                       # average overall miss latency ((Tick/Count))
system.l2.overallAvgMissLatency::cpu.data 72086.856912                       # average overall miss latency ((Tick/Count))
system.l2.overallAvgMissLatency::total   74359.564352                       # average overall miss latency ((Tick/Count))
system.l2.blockedCycles::no_mshrs                   0                       # number of cycles access was blocked (Cycle)
system.l2.blockedCycles::no_targets                 0                       # number of cycles access was blocked (Cycle)
system.l2.blockedCauses::no_mshrs                   0                       # number of times access was blocked (Count)
system.l2.blockedCauses::no_targets                 0                       # number of times access was blocked (Count)
system.l2.avgBlocked::no_mshrs                    nan                       # average number of cycles each access was blocked ((Cycle/Count))
system.l2.avgBlocked::no_targets                  nan                       # average number of cycles each access was blocked ((Cycle/Count))
system.l2.writebacks::writebacks                 7193                       # number of writebacks (Count)
system.l2.writebacks::total                      7193                       # number of writebacks (Count)
system.l2.demandMshrHits::cpu.inst                  1                       # number of demand (read+write) MSHR hits (Count)
system.l2.demandMshrHits::total                     1                       # number of demand (read+write) MSHR hits (Count)
system.l2.overallMshrHits::cpu.inst                 1                       # number of overall MSHR hits (Count)
system.l2.overallMshrHits::total                    1                       # number of overall MSHR hits (Count)
system.l2.demandMshrMisses::cpu.inst           140661                       # number of demand (read+write) MSHR misses (Count)
system.l2.demandMshrMisses::cpu.data            59362                       # number of demand (read+write) MSHR misses (Count)
system.l2.demandMshrMisses::total              200023                       # number of demand (read+write) MSHR misses (Count)
system.l2.overallMshrMisses::cpu.inst          140661                       # number of overall MSHR misses (Count)
system.l2.overallMshrMisses::cpu.data           59362                       # number of overall MSHR misses (Count)
system.l2.overallMshrMisses::total             200023                       # number of overall MSHR misses (Count)
system.l2.demandMshrMissLatency::cpu.inst   9187795500                       # number of demand (read+write) MSHR miss ticks (Tick)
system.l2.demandMshrMissLatency::cpu.data   3685600000                       # number of demand (read+write) MSHR miss ticks (Tick)
system.l2.demandMshrMissLatency::total    12873395500                       # number of demand (read+write) MSHR miss ticks (Tick)
system.l2.overallMshrMissLatency::cpu.inst   9187795500                       # number of overall MSHR miss ticks (Tick)
system.l2.overallMshrMissLatency::cpu.data   3685600000                       # number of overall MSHR miss ticks (Tick)
system.l2.overallMshrMissLatency::total   12873395500                       # number of overall MSHR miss ticks (Tick)
system.l2.demandMshrMissRate::cpu.inst       0.583404                       # mshr miss ratio for demand accesses (Ratio)
system.l2.demandMshrMissRate::cpu.data       0.836910                       # mshr miss ratio for demand accesses (Ratio)
system.l2.demandMshrMissRate::total          0.641030                       # mshr miss ratio for demand accesses (Ratio)
system.l2.overallMshrMissRate::cpu.inst      0.583404                       # mshr miss ratio for overall accesses (Ratio)
system.l2.overallMshrMissRate::cpu.data      0.836910                       # mshr miss ratio for overall accesses (Ratio)
system.l2.overallMshrMissRate::total         0.641030                       # mshr miss ratio for overall accesses (Ratio)
system.l2.demandAvgMshrMissLatency::cpu.inst 65318.713076                       # average overall mshr miss latency ((Tick/Count))
system.l2.demandAvgMshrMissLatency::cpu.data 62086.856912                       # average overall mshr miss latency ((Tick/Count))
system.l2.demandAvgMshrMissLatency::total 64359.576149                       # average overall mshr miss latency ((Tick/Count))
system.l2.overallAvgMshrMissLatency::cpu.inst 65318.713076                       # average overall mshr miss latency ((Tick/Count))
system.l2.overallAvgMshrMissLatency::cpu.data 62086.856912                       # average overall mshr miss latency ((Tick/Count))
system.l2.overallAvgMshrMissLatency::total 64359.576149                       # average overall mshr miss latency ((Tick/Count))
system.l2.replacements                         397761                       # number of replacements (Count)
system.l2.CleanEvict.mshrMisses::writebacks        48417                       # number of CleanEvict MSHR misses (Count)
system.l2.CleanEvict.mshrMisses::total          48417                       # number of CleanEvict MSHR misses (Count)
system.l2.CleanEvict.mshrMissRate::writebacks          inf                       # mshr miss rate for CleanEvict accesses (Ratio)
system.l2.CleanEvict.mshrMissRate::total          inf                       # mshr miss rate for CleanEvict accesses (Ratio)
system.l2.ReadCleanReq.hits::cpu.inst          100442                       # number of ReadCleanReq hits (Count)
system.l2.ReadCleanReq.hits::total             100442                       # number of ReadCleanReq hits (Count)
system.l2.ReadCleanReq.misses::cpu.inst        140662                       # number of ReadCleanReq misses (Count)
system.l2.ReadCleanReq.misses::total           140662                       # number of ReadCleanReq misses (Count)
system.l2.ReadCleanReq.missLatency::cpu.inst  10594477500                       # number of ReadCleanReq miss ticks (Tick)
system.l2.ReadCleanReq.missLatency::total  10594477500                       # number of ReadCleanReq miss ticks (Tick)
system.l2.ReadCleanReq.accesses::cpu.inst       241104                       # number of ReadCleanReq accesses(hits+misses) (Count)
system.l2.ReadCleanReq.accesses::total         241104                       # number of ReadCleanReq accesses(hits+misses) (Count)
system.l2.ReadCleanReq.missRate::cpu.inst     0.583408                       # miss rate for ReadCleanReq accesses (Ratio)
system.l2.ReadCleanReq.missRate::total       0.583408                       # miss rate for ReadCleanReq accesses (Ratio)
system.l2.ReadCleanReq.avgMissLatency::cpu.inst 75318.689483                       # average ReadCleanReq miss latency ((Tick/Count))
system.l2.ReadCleanReq.avgMissLatency::total 75318.689483                       # average ReadCleanReq miss latency ((Tick/Count))
system.l2.ReadCleanReq.mshrHits::cpu.inst            1                       # number of ReadCleanReq MSHR hits (Count)
system.l2.ReadCleanReq.mshrHits::total              1                       # number of ReadCleanReq MSHR hits (Count)
system.l2.ReadCleanReq.mshrMisses::cpu.inst       140661                       # number of ReadCleanReq MSHR misses (Count)
system.l2.ReadCleanReq.mshrMisses::total       140661                       # number of ReadCleanReq MSHR misses (Count)
system.l2.ReadCleanReq.mshrMissLatency::cpu.inst   9187795500                       # number of ReadCleanReq MSHR miss ticks (Tick)
system.l2.ReadCleanReq.mshrMissLatency::total   9187795500                       # number of ReadCleanReq MSHR miss ticks (Tick)
system.l2.ReadCleanReq.mshrMissRate::cpu.inst     0.583404                       # mshr miss rate for ReadCleanReq accesses (Ratio)
system.l2.ReadCleanReq.mshrMissRate::total     0.583404                       # mshr miss rate for ReadCleanReq accesses (Ratio)
system.l2.ReadCleanReq.avgMshrMissLatency::cpu.inst 65318.713076                       # average ReadCleanReq mshr miss latency ((Tick/Count))
system.l2.ReadCleanReq.avgMshrMissLatency::total 65318.713076                       # average ReadCleanReq mshr miss latency ((Tick/Count))
system.l2.ReadExReq.hits::cpu.data               1115                       # number of ReadExReq hits (Count)
system.l2.ReadExReq.hits::total                  1115                       # number of ReadExReq hits (Count)
system.l2.ReadExReq.misses::cpu.data             4764                       # number of ReadExReq misses (Count)
system.l2.ReadExReq.misses::total                4764                       # number of ReadExReq misses (Count)
system.l2.ReadExReq.missLatency::cpu.data    210099000                       # number of ReadExReq miss ticks (Tick)
system.l2.ReadExReq.missLatency::total      210099000                       # number of ReadExReq miss ticks (Tick)
system.l2.ReadExReq.accesses::cpu.data           5879                       # number of ReadExReq accesses(hits+misses) (Count)
system.l2.ReadExReq.accesses::total              5879                       # number of ReadExReq accesses(hits+misses) (Count)
system.l2.ReadExReq.missRate::cpu.data       0.810342                       # miss rate for ReadExReq accesses (Ratio)
system.l2.ReadExReq.missRate::total          0.810342                       # miss rate for ReadExReq accesses (Ratio)
system.l2.ReadExReq.avgMissLatency::cpu.data 44101.385390                       # average ReadExReq miss latency ((Tick/Count))
system.l2.ReadExReq.avgMissLatency::total 44101.385390                       # average ReadExReq miss latency ((Tick/Count))
system.l2.ReadExReq.mshrMisses::cpu.data         4764                       # number of ReadExReq MSHR misses (Count)
system.l2.ReadExReq.mshrMisses::total            4764                       # number of ReadExReq MSHR misses (Count)
system.l2.ReadExReq.mshrMissLatency::cpu.data    162459000                       # number of ReadExReq MSHR miss ticks (Tick)
system.l2.ReadExReq.mshrMissLatency::total    162459000                       # number of ReadExReq MSHR miss ticks (Tick)
system.l2.ReadExReq.mshrMissRate::cpu.data     0.810342                       # mshr miss rate for ReadExReq accesses (Ratio)
system.l2.ReadExReq.mshrMissRate::total      0.810342                       # mshr miss rate for ReadExReq accesses (Ratio)
system.l2.ReadExReq.avgMshrMissLatency::cpu.data 34101.385390                       # average ReadExReq mshr miss latency ((Tick/Count))
system.l2.ReadExReq.avgMshrMissLatency::total 34101.385390                       # average ReadExReq mshr miss latency ((Tick/Count))
system.l2.ReadSharedReq.hits::cpu.data          10453                       # number of ReadSharedReq hits (Count)
system.l2.ReadSharedReq.hits::total             10453                       # number of ReadSharedReq hits (Count)
system.l2.ReadSharedReq.misses::cpu.data        54598                       # number of ReadSharedReq misses (Count)
system.l2.ReadSharedReq.misses::total           54598                       # number of ReadSharedReq misses (Count)
system.l2.ReadSharedReq.missLatency::cpu.data   4069121000                       # number of ReadSharedReq miss ticks (Tick)
system.l2.ReadSharedReq.missLatency::total   4069121000                       # number of ReadSharedReq miss ticks (Tick)
system.l2.ReadSharedReq.accesses::cpu.data        65051                       # number of ReadSharedReq accesses(hits+misses) (Count)
system.l2.ReadSharedReq.accesses::total         65051                       # number of ReadSharedReq accesses(hits+misses) (Count)
system.l2.ReadSharedReq.missRate::cpu.data     0.839311                       # miss rate for ReadSharedReq accesses (Ratio)
system.l2.ReadSharedReq.missRate::total      0.839311                       # miss rate for ReadSharedReq accesses (Ratio)
system.l2.ReadSharedReq.avgMissLatency::cpu.data 74528.755632                       # average ReadSharedReq miss latency ((Tick/Count))
system.l2.ReadSharedReq.avgMissLatency::total 74528.755632                       # average ReadSharedReq miss latency ((Tick/Count))
system.l2.ReadSharedReq.mshrMisses::cpu.data        54598                       # number of ReadSharedReq MSHR misses (Count)
system.l2.ReadSharedReq.mshrMisses::total        54598                       # number of ReadSharedReq MSHR misses (Count)
system.l2.ReadSharedReq.mshrMissLatency::cpu.data   3523141000                       # number of ReadSharedReq MSHR miss ticks (Tick)
system.l2.ReadSharedReq.mshrMissLatency::total   3523141000                       # number of ReadSharedReq MSHR miss ticks (Tick)
system.l2.ReadSharedReq.mshrMissRate::cpu.data     0.839311                       # mshr miss rate for ReadSharedReq accesses (Ratio)
system.l2.ReadSharedReq.mshrMissRate::total     0.839311                       # mshr miss rate for ReadSharedReq accesses (Ratio)
system.l2.ReadSharedReq.avgMshrMissLatency::cpu.data 64528.755632                       # average ReadSharedReq mshr miss latency ((Tick/Count))
system.l2.ReadSharedReq.avgMshrMissLatency::total 64528.755632                       # average ReadSharedReq mshr miss latency ((Tick/Count))
system.l2.WritebackClean.hits::writebacks       241071                       # number of WritebackClean hits (Count)
system.l2.WritebackClean.hits::total           241071                       # number of WritebackClean hits (Count)
system.l2.WritebackClean.accesses::writebacks       241071                       # number of WritebackClean accesses(hits+misses) (Count)
system.l2.WritebackClean.accesses::total       241071                       # number of WritebackClean accesses(hits+misses) (Count)
system.l2.WritebackDirty.hits::writebacks         8923                       # number of WritebackDirty hits (Count)
system.l2.WritebackDirty.hits::total             8923                       # number of WritebackDirty hits (Count)
system.l2.WritebackDirty.accesses::writebacks         8923                       # number of WritebackDirty accesses(hits+misses) (Count)
system.l2.WritebackDirty.accesses::total         8923                       # number of WritebackDirty accesses(hits+misses) (Count)
system.l2.power_state.pwrStateResidencyTicks::UNDEFINED  23349848000                       # Cumulative time (in ticks) in various power states (Tick)
system.l2.tags.tagsInUse                    31.997260                       # Average ticks per tags in use ((Tick/Count))
system.l2.tags.totalRefs                       575584                       # Total number of references to valid blocks. (Count)
system.l2.tags.sampledRefs                     397793                       # Sample count of references to valid blocks. (Count)
system.l2.tags.avgRefs                       1.446944                       # Average number of references to valid blocks. ((Count/Count))
system.l2.tags.warmupTick                       77000                       # The tick when the warmup percentage was hit. (Tick)
system.l2.tags.occupancies::writebacks      13.929995                       # Average occupied blocks per tick, per requestor ((Count/Tick))
system.l2.tags.occupancies::cpu.inst         5.598968                       # Average occupied blocks per tick, per requestor ((Count/Tick))
system.l2.tags.occupancies::cpu.data        12.468297                       # Average occupied blocks per tick, per requestor ((Count/Tick))
system.l2.tags.avgOccs::writebacks           0.435312                       # Average percentage of cache occupancy ((Ratio/Tick))
system.l2.tags.avgOccs::cpu.inst             0.174968                       # Average percentage of cache occupancy ((Ratio/Tick))
system.l2.tags.avgOccs::cpu.data             0.389634                       # Average percentage of cache occupancy ((Ratio/Tick))
system.l2.tags.avgOccs::total                0.999914                       # Average percentage of cache occupancy ((Ratio/Tick))
system.l2.tags.occupanciesTaskId::1024             32                       # Occupied blocks per task id (Count)
system.l2.tags.ageTaskId_1024::0                   32                       # Occupied blocks per task id, per block age (Count)
system.l2.tags.ratioOccsTaskId::1024                1                       # Ratio of occupied blocks and all blocks, per task id (Ratio)
system.l2.tags.tagAccesses                    1021796                       # Number of tag accesses (Count)
system.l2.tags.dataAccesses                   1021796                       # Number of data accesses (Count)
system.l2.tags.power_state.pwrStateResidencyTicks::UNDEFINED  23349848000                       # Cumulative time (in ticks) in various power states (Tick)
system.mem_ctrls.avgPriority_writebacks::samples       638.00                       # Average QoS priority value for accepted requests (Count)
system.mem_ctrls.avgPriority_cpu.inst::samples    140660.00                       # Average QoS priority value for accepted requests (Count)
system.mem_ctrls.avgPriority_cpu.data::samples     49612.00                       # Average QoS priority value for accepted requests (Count)
system.mem_ctrls.priorityMinLatency      0.000000018750                       # per QoS priority minimum request to response latency (Second)
system.mem_ctrls.priorityMaxLatency      0.032092365750                       # per QoS priority maximum request to response latency (Second)
system.mem_ctrls.numReadWriteTurnArounds           37                       # Number of turnarounds from READ to WRITE (Count)
system.mem_ctrls.numWriteReadTurnArounds           37                       # Number of turnarounds from WRITE to READ (Count)
system.mem_ctrls.numStayReadState              393572                       # Number of times bus staying in READ state (Count)
system.mem_ctrls.numStayWriteState                584                       # Number of times bus staying in WRITE state (Count)
system.mem_ctrls.readReqs                      200022                       # Number of read requests accepted (Count)
system.mem_ctrls.writeReqs                       7193                       # Number of write requests accepted (Count)
system.mem_ctrls.readBursts                    200022                       # Number of controller read bursts, including those serviced by the write queue (Count)
system.mem_ctrls.writeBursts                     7193                       # Number of controller write bursts, including those merged in the write queue (Count)
system.mem_ctrls.servicedByWrQ                   9750                       # Number of controller read bursts serviced by the write queue (Count)
system.mem_ctrls.mergedWrBursts                  6555                       # Number of controller write bursts merged with an existing one (Count)
system.mem_ctrls.neitherReadNorWriteReqs            0                       # Number of requests that are neither read nor write (Count)
system.mem_ctrls.avgRdQLen                       1.06                       # Average read queue length when enqueuing ((Count/Tick))
system.mem_ctrls.avgWrQLen                      29.15                       # Average write queue length when enqueuing ((Count/Tick))
system.mem_ctrls.numRdRetry                         0                       # Number of times read queue was full causing retry (Count)
system.mem_ctrls.numWrRetry                         0                       # Number of times write queue was full causing retry (Count)
system.mem_ctrls.readPktSize::0                     0                       # Read request sizes (log2) (Count)
system.mem_ctrls.readPktSize::1                     0                       # Read request sizes (log2) (Count)
system.mem_ctrls.readPktSize::2                     0                       # Read request sizes (log2) (Count)
system.mem_ctrls.readPktSize::3                     0                       # Read request sizes (log2) (Count)
system.mem_ctrls.readPktSize::4                     0                       # Read request sizes (log2) (Count)
system.mem_ctrls.readPktSize::5                     0                       # Read request sizes (log2) (Count)
system.mem_ctrls.readPktSize::6                200022                       # Read request sizes (log2) (Count)
system.mem_ctrls.writePktSize::0                    0                       # Write request sizes (log2) (Count)
system.mem_ctrls.writePktSize::1                    0                       # Write request sizes (log2) (Count)
system.mem_ctrls.writePktSize::2                    0                       # Write request sizes (log2) (Count)
system.mem_ctrls.writePktSize::3                    0                       # Write request sizes (log2) (Count)
system.mem_ctrls.writePktSize::4                    0                       # Write request sizes (log2) (Count)
system.mem_ctrls.writePktSize::5                    0                       # Write request sizes (log2) (Count)
system.mem_ctrls.writePktSize::6                 7193                       # Write request sizes (log2) (Count)
system.mem_ctrls.rdQLenPdf::0                  178412                       # What read queue length does an incoming req see (Count)
system.mem_ctrls.rdQLenPdf::1                   11808                       # What read queue length does an incoming req see (Count)
system.mem_ctrls.rdQLenPdf::2                      52                       # What read queue length does an incoming req see (Count)
[...]
system.mem_ctrls.dram.perBankWrBursts::11           48                       # Per bank write bursts (Count)
system.mem_ctrls.dram.perBankWrBursts::12           43                       # Per bank write bursts (Count)
system.mem_ctrls.dram.perBankWrBursts::13            0                       # Per bank write bursts (Count)
system.mem_ctrls.dram.perBankWrBursts::14            0                       # Per bank write bursts (Count)
system.mem_ctrls.dram.perBankWrBursts::15            0                       # Per bank write bursts (Count)
system.mem_ctrls.dram.totQLat              1144792000                       # Total ticks spent queuing (Tick)
system.mem_ctrls.dram.totBusLat             951360000                       # Total ticks spent in databus transfers (Tick)
system.mem_ctrls.dram.totMemAccLat         4712392000                       # Total ticks spent from burst creation until serviced by the DRAM (Tick)
system.mem_ctrls.dram.avgQLat                 6016.61                       # Average queueing delay per DRAM burst ((Tick/Count))
system.mem_ctrls.dram.avgBusLat               5000.00                       # Average bus latency per DRAM burst ((Tick/Count))
system.mem_ctrls.dram.avgMemAccLat           24766.61                       # Average memory access latency per DRAM burst ((Tick/Count))
system.mem_ctrls.dram.readRowHits              157614                       # Number of row buffer hits during reads (Count)
system.mem_ctrls.dram.writeRowHits                561                       # Number of row buffer hits during writes (Count)
system.mem_ctrls.dram.readRowHitRate            82.84                       # Row buffer hit rate for reads (Ratio)
system.mem_ctrls.dram.writeRowHitRate           90.34                       # Row buffer hit rate for writes (Ratio)
system.mem_ctrls.dram.bytesPerActivate::samples        32708                       # Bytes accessed per row activation (Byte)
system.mem_ctrls.dram.bytesPerActivate::mean   373.420081                       # Bytes accessed per row activation (Byte)
system.mem_ctrls.dram.bytesPerActivate::gmean   222.881075                       # Bytes accessed per row activation (Byte)
system.mem_ctrls.dram.bytesPerActivate::stdev   354.861687                       # Bytes accessed per row activation (Byte)
system.mem_ctrls.dram.bytesPerActivate::0-127        10201     31.19%     31.19% # Bytes accessed per row activation (Byte)
system.mem_ctrls.dram.bytesPerActivate::128-255         6874     21.02%     52.20% # Bytes accessed per row activation (Byte)
system.mem_ctrls.dram.bytesPerActivate::256-383         3884     11.87%     64.08% # Bytes accessed per row activation (Byte)
system.mem_ctrls.dram.bytesPerActivate::384-511         1756      5.37%     69.45% # Bytes accessed per row activation (Byte)
system.mem_ctrls.dram.bytesPerActivate::512-639         1277      3.90%     73.35% # Bytes accessed per row activation (Byte)
system.mem_ctrls.dram.bytesPerActivate::640-767         1619      4.95%     78.30% # Bytes accessed per row activation (Byte)
system.mem_ctrls.dram.bytesPerActivate::768-895         1203      3.68%     81.98% # Bytes accessed per row activation (Byte)
system.mem_ctrls.dram.bytesPerActivate::896-1023          989      3.02%     85.00% # Bytes accessed per row activation (Byte)
system.mem_ctrls.dram.bytesPerActivate::1024-1151         4905     15.00%    100.00% # Bytes accessed per row activation (Byte)
system.mem_ctrls.dram.bytesPerActivate::total        32708                       # Bytes accessed per row activation (Byte)
system.mem_ctrls.dram.bytesRead              12177408                       # Total bytes read (Byte)
system.mem_ctrls.dram.bytesWritten              39744                       # Total bytes written (Byte)
system.mem_ctrls.dram.avgRdBW              521.519797                       # Average DRAM read bandwidth in MiBytes/s ((Byte/Second))
system.mem_ctrls.dram.avgWrBW                1.702110                       # Average DRAM write bandwidth in MiBytes/s ((Byte/Second))
system.mem_ctrls.dram.peakBW                 12800.00                       # Theoretical peak bandwidth in MiByte/s ((Byte/Second))
system.mem_ctrls.dram.busUtil                    4.09                       # Data bus utilization in percentage (Ratio)
system.mem_ctrls.dram.busUtilRead                4.07                       # Data bus utilization in percentage for reads (Ratio)
system.mem_ctrls.dram.busUtilWrite               0.01                       # Data bus utilization in percentage for writes (Ratio)
system.mem_ctrls.dram.pageHitRate               82.86                       # Row buffer hit rate, read and write combined (Ratio)
system.mem_ctrls.dram.power_state.pwrStateResidencyTicks::UNDEFINED  23349848000                       # Cumulative time (in ticks) in various power states (Tick)
system.mem_ctrls.dram.rank0.actEnergy       176293740                       # Energy for activate commands per rank (pJ) (Joule)
system.mem_ctrls.dram.rank0.preEnergy        93683370                       # Energy for precharge commands per rank (pJ) (Joule)
system.mem_ctrls.dram.rank0.readEnergy     1195100340                       # Energy for read commands per rank (pJ) (Joule)
system.mem_ctrls.dram.rank0.writeEnergy        626400                       # Energy for write commands per rank (pJ) (Joule)
system.mem_ctrls.dram.rank0.refreshEnergy 1842690720.000000                       # Energy for refresh commands per rank (pJ) (Joule)
system.mem_ctrls.dram.rank0.actBackEnergy  10550661810                       # Energy for active background per rank (pJ) (Joule)
system.mem_ctrls.dram.rank0.preBackEnergy     81574080                       # Energy for precharge background per rank (pJ) (Joule)
system.mem_ctrls.dram.rank0.actPowerDownEnergy            0                       # Energy for active power-down per rank (pJ) (Joule)
system.mem_ctrls.dram.rank0.prePowerDownEnergy            0                       # Energy for precharge power-down per rank (pJ) (Joule)
system.mem_ctrls.dram.rank0.selfRefreshEnergy            0                       # Energy for self refresh per rank (pJ) (Joule)
system.mem_ctrls.dram.rank0.totalEnergy   13940630460                       # Total energy per rank (pJ) (Joule)
system.mem_ctrls.dram.rank0.averagePower   597.033028                       # Core power per rank (mW) (Watt)
system.mem_ctrls.dram.rank0.totalIdleTime            0                       # Total Idle time Per DRAM Rank (Tick)
system.mem_ctrls.dram.rank0.pwrStateTime::IDLE    126762750                       # Time in different power states (Tick)
system.mem_ctrls.dram.rank0.pwrStateTime::REF    779480000                       # Time in different power states (Tick)
system.mem_ctrls.dram.rank0.pwrStateTime::SREF            0                       # Time in different power states (Tick)
system.mem_ctrls.dram.rank0.pwrStateTime::PRE_PDN            0                       # Time in different power states (Tick)
system.mem_ctrls.dram.rank0.pwrStateTime::ACT  22443605250                       # Time in different power states (Tick)
system.mem_ctrls.dram.rank0.pwrStateTime::ACT_PDN            0                       # Time in different power states (Tick)
system.mem_ctrls.dram.rank1.actEnergy        57312780                       # Energy for activate commands per rank (pJ) (Joule)
system.mem_ctrls.dram.rank1.preEnergy        30443490                       # Energy for precharge commands per rank (pJ) (Joule)
system.mem_ctrls.dram.rank1.readEnergy      163441740                       # Energy for read commands per rank (pJ) (Joule)
system.mem_ctrls.dram.rank1.writeEnergy       2615220                       # Energy for write commands per rank (pJ) (Joule)
system.mem_ctrls.dram.rank1.refreshEnergy 1842690720.000000                       # Energy for refresh commands per rank (pJ) (Joule)
system.mem_ctrls.dram.rank1.actBackEnergy   7973492310                       # Energy for active background per rank (pJ) (Joule)
system.mem_ctrls.dram.rank1.preBackEnergy   2251822080                       # Energy for precharge background per rank (pJ) (Joule)
system.mem_ctrls.dram.rank1.actPowerDownEnergy            0                       # Energy for active power-down per rank (pJ) (Joule)
system.mem_ctrls.dram.rank1.prePowerDownEnergy            0                       # Energy for precharge power-down per rank (pJ) (Joule)
system.mem_ctrls.dram.rank1.selfRefreshEnergy            0                       # Energy for self refresh per rank (pJ) (Joule)
system.mem_ctrls.dram.rank1.totalEnergy   12321818340                       # Total energy per rank (pJ) (Joule)
system.mem_ctrls.dram.rank1.averagePower   527.704435                       # Core power per rank (mW) (Watt)
system.mem_ctrls.dram.rank1.totalIdleTime            0                       # Total Idle time Per DRAM Rank (Tick)
system.mem_ctrls.dram.rank1.pwrStateTime::IDLE   5781404500                       # Time in different power states (Tick)
system.mem_ctrls.dram.rank1.pwrStateTime::REF    779480000                       # Time in different power states (Tick)
system.mem_ctrls.dram.rank1.pwrStateTime::SREF            0                       # Time in different power states (Tick)
system.mem_ctrls.dram.rank1.pwrStateTime::PRE_PDN            0                       # Time in different power states (Tick)
system.mem_ctrls.dram.rank1.pwrStateTime::ACT  16788963500                       # Time in different power states (Tick)
system.mem_ctrls.dram.rank1.pwrStateTime::ACT_PDN            0                       # Time in different power states (Tick)
system.mem_ctrls.power_state.pwrStateResidencyTicks::UNDEFINED  23349848000                       # Cumulative time (in ticks) in various power states (Tick)
system.membus.transDist::ReadResp              195258                       # Transaction distribution (Count)
system.membus.transDist::WritebackDirty          7193                       # Transaction distribution (Count)
system.membus.transDist::CleanEvict            192747                       # Transaction distribution (Count)
system.membus.transDist::ReadExReq               4764                       # Transaction distribution (Count)
system.membus.transDist::ReadExResp              4764                       # Transaction distribution (Count)
system.membus.transDist::ReadSharedReq         195258                       # Transaction distribution (Count)
system.membus.pktCount_system.l2.mem_side_port::system.mem_ctrls.port       599984                       # Packet count per connected requestor and responder (Count)
system.membus.pktCount::total                  599984                       # Packet count per connected requestor and responder (Count)
system.membus.pktSize_system.l2.mem_side_port::system.mem_ctrls.port     13261760                       # Cumulative packet size per connected requestor and responder (Byte)
system.membus.pktSize::total                 13261760                       # Cumulative packet size per connected requestor and responder (Byte)
system.membus.snoops                                0                       # Total snoops (Count)
system.membus.snoopTraffic                          0                       # Total snoop traffic (Byte)
system.membus.snoopFanout::samples             200022                       # Request fanout histogram (Count)
system.membus.snoopFanout::mean                     0                       # Request fanout histogram (Count)
system.membus.snoopFanout::stdev                    0                       # Request fanout histogram (Count)
system.membus.snoopFanout::underflows               0      0.00%      0.00% # Request fanout histogram (Count)
system.membus.snoopFanout::0                   200022    100.00%    100.00% # Request fanout histogram (Count)
system.membus.snoopFanout::1                        0      0.00%    100.00% # Request fanout histogram (Count)
system.membus.snoopFanout::overflows                0      0.00%    100.00% # Request fanout histogram (Count)
system.membus.snoopFanout::min_value                0                       # Request fanout histogram (Count)
system.membus.snoopFanout::max_value                0                       # Request fanout histogram (Count)
system.membus.snoopFanout::total               200022                       # Request fanout histogram (Count)
system.membus.power_state.pwrStateResidencyTicks::UNDEFINED  23349848000                       # Cumulative time (in ticks) in various power states (Tick)
system.membus.reqLayer0.occupancy           573356500                       # Layer occupancy (ticks) (Tick)
system.membus.reqLayer0.utilization               0.0                       # Layer utilization (Ratio)
system.membus.respLayer1.occupancy         1056982250                       # Layer occupancy (ticks) (Tick)
system.membus.respLayer1.utilization              0.0                       # Layer utilization (Ratio)
system.membus.snoop_filter.totRequests         399962                       # Total number of requests made to the snoop filter. (Count)
system.membus.snoop_filter.hitSingleRequests       199940                       # Number of requests hitting in the snoop filter with a single holder of the requested data. (Count)
system.membus.snoop_filter.hitMultiRequests            0                       # Number of requests hitting in the snoop filter with multiple (>1) holders of the requested data. (Count)
system.membus.snoop_filter.totSnoops                0                       # Total number of snoops made to the snoop filter. (Count)
system.membus.snoop_filter.hitSingleSnoops            0                       # Number of snoops hitting in the snoop filter with a single holder of the requested data. (Count)
system.membus.snoop_filter.hitMultiSnoops            0                       # Number of snoops hitting in the snoop filter with multiple (>1) holders of the requested data. (Count)
system.tol2bus.transDist::ReadResp             306154                       # Transaction distribution (Count)
system.tol2bus.transDist::WritebackDirty        16116                       # Transaction distribution (Count)
system.tol2bus.transDist::WritebackClean       241071                       # Transaction distribution (Count)
system.tol2bus.transDist::CleanEvict           452543                       # Transaction distribution (Count)
system.tol2bus.transDist::ReadExReq              5879                       # Transaction distribution (Count)
system.tol2bus.transDist::ReadExResp             5879                       # Transaction distribution (Count)
system.tol2bus.transDist::ReadCleanReq         241104                       # Transaction distribution (Count)
system.tol2bus.transDist::ReadSharedReq         65051                       # Transaction distribution (Count)
system.tol2bus.pktCount_system.cpu.icache.mem_side_port::system.l2.cpu_side_port       723278                       # Packet count per connected requestor and responder (Count)
system.tol2bus.pktCount_system.cpu.dcache.mem_side_port::system.l2.cpu_side_port       212758                       # Packet count per connected requestor and responder (Count)
system.tol2bus.pktCount::total                 936036                       # Packet count per connected requestor and responder (Count)
system.tol2bus.pktSize_system.cpu.icache.mem_side_port::system.l2.cpu_side_port     30859136                       # Cumulative packet size per connected requestor and responder (Byte)
system.tol2bus.pktSize_system.cpu.dcache.mem_side_port::system.l2.cpu_side_port      5110592                       # Cumulative packet size per connected requestor and responder (Byte)
system.tol2bus.pktSize::total                35969728                       # Cumulative packet size per connected requestor and responder (Byte)
system.tol2bus.snoops                          397761                       # Total snoops (Count)
system.tol2bus.snoopTraffic                    460352                       # Total snoop traffic (Byte)
system.tol2bus.snoopFanout::samples            709795                       # Request fanout histogram (Count)
system.tol2bus.snoopFanout::mean             0.346917                       # Request fanout histogram (Count)
system.tol2bus.snoopFanout::stdev            0.475992                       # Request fanout histogram (Count)
system.tol2bus.snoopFanout::underflows              0      0.00%      0.00% # Request fanout histogram (Count)
system.tol2bus.snoopFanout::0                  463556     65.31%     65.31% # Request fanout histogram (Count)
system.tol2bus.snoopFanout::1                  246238     34.69%    100.00% # Request fanout histogram (Count)
system.tol2bus.snoopFanout::2                       1      0.00%    100.00% # Request fanout histogram (Count)
system.tol2bus.snoopFanout::3                       0      0.00%    100.00% # Request fanout histogram (Count)
system.tol2bus.snoopFanout::4                       0      0.00%    100.00% # Request fanout histogram (Count)
system.tol2bus.snoopFanout::overflows               0      0.00%    100.00% # Request fanout histogram (Count)
system.tol2bus.snoopFanout::min_value               0                       # Request fanout histogram (Count)
system.tol2bus.snoopFanout::max_value               2                       # Request fanout histogram (Count)
system.tol2bus.snoopFanout::total              709795                       # Request fanout histogram (Count)
system.tol2bus.power_state.pwrStateResidencyTicks::UNDEFINED  23349848000                       # Cumulative time (in ticks) in various power states (Tick)
system.tol2bus.reqLayer0.occupancy          561995500                       # Layer occupancy (ticks) (Tick)
system.tol2bus.reqLayer0.utilization              0.0                       # Layer utilization (Ratio)
system.tol2bus.respLayer0.occupancy         361654999                       # Layer occupancy (ticks) (Tick)
system.tol2bus.respLayer0.utilization             0.0                       # Layer utilization (Ratio)
system.tol2bus.respLayer1.occupancy         106395000                       # Layer occupancy (ticks) (Tick)
system.tol2bus.respLayer1.utilization             0.0                       # Layer utilization (Ratio)
system.tol2bus.snoop_filter.totRequests        624003                       # Total number of requests made to the snoop filter. (Count)
system.tol2bus.snoop_filter.hitSingleRequests       311970                       # Number of requests hitting in the snoop filter with a single holder of the requested data. (Count)
system.tol2bus.snoop_filter.hitMultiRequests            0                       # Number of requests hitting in the snoop filter with multiple (>1) holders of the requested data. (Count)
system.tol2bus.snoop_filter.totSnoops          246238                       # Total number of snoops made to the snoop filter. (Count)
system.tol2bus.snoop_filter.hitSingleSnoops       246237                       # Number of snoops hitting in the snoop filter with a single holder of the requested data. (Count)
system.tol2bus.snoop_filter.hitMultiSnoops            1                       # Number of snoops hitting in the snoop filter with multiple (>1) holders of the requested data. (Count)
system.voltage_domain.voltage                       1                       # Voltage in Volts (Volt)
system.workload.inst.arm                            0                       # number of arm instructions executed (Count)
system.workload.inst.quiesce                        0                       # number of quiesce instructions executed (Count)
system.cpu.idleCycles                        12417168                       # Total number of cycles that the object has spent stopped (Unspecified)
system.cpu.tickCycles                        10932680                       # Number of cycles that the object actually ticked (Unspecified)

---------- End Simulation Statistics   ----------
